data_PbBr3Cs_ISIF3_IBRION6_IVDW21
_audit_creation_date              Tomorrow
_audit_creation_method            'iGOR'
_symmetry_space_group_name_H-M    'P1'
loop_
_symmetry_equiv_pos_as_xyz
  x,y,z
_cell_length_a                    5.7218700
_cell_length_b                    5.7218700
_cell_length_c                    5.7218700
_cell_angle_alpha                 90.0000
_cell_angle_beta                  90.0000
_cell_angle_gamma                 85.500000
loop_
_atom_site_label
_atom_site_type_symbol
_atom_site_fract_x
_atom_site_fract_y
_atom_site_fract_z
Cs Cs  0.0000000000000000  0.0000000000000000  0.0000000000000000
Pb Pb  0.5000000000000000  0.5000000000000000  0.5000000000000000
Br Br  0.0000000000000000  0.5000000000000000  0.5000000000000000
Br Br  0.5000000000000000  0.0000000000000000  0.5000000000000000
Br Br  0.5000000000000000  0.5000000000000000  0.9924975270322478
