data_block_1
_audit_creation_date         'Tue Feb 19 15:42:30 2019'
_audit_creation_method       'generated by GDIS v0.90'
_cell_length_a                    6.12057
_cell_length_b                    6.12057
_cell_length_c                    5.8524
_cell_angle_alpha                 90.0000
_cell_angle_beta                  90.0000
_cell_angle_gamma                 90.0000
loop_
_symmetry_space_group_name_H-M   'P1'
_symmetry_Int_Tables_number       1
loop_
_atom_site_label
_atom_site_label
_atom_site_fract_x
_atom_site_fract_y
_atom_site_fract_z
Cs  Cs  0.0000    1.0000    0.0002
Pb  Pb  0.5000    0.5000    0.4983
I   I   1.0000    0.5000    0.4992
I   I   0.5000    0.5000    0.9960
Br Br .3600 -.1400 0.4992
