data_PbI2ClCs_ISIF3_IBRION6_IVDW21
_audit_creation_date              Tomorrow
_audit_creation_method            'iGOR'
_symmetry_space_group_name_H-M    'P1'
loop_
_symmetry_equiv_pos_as_xyz
  x,y,z
_cell_length_a                    6.512662
_cell_length_b                    6.075888
_cell_length_c                    6.509773
_cell_angle_alpha                 90.0000
_cell_angle_beta                  90.0003
_cell_angle_gamma                 89.9999
loop_
_atom_site_label
_atom_site_type_symbol
_atom_site_fract_x
_atom_site_fract_y
_atom_site_fract_z
 Cs  Cs          0.00000      0.00000      0.00028 
 Pb  Pb          0.50000      0.50000      0.49790 
 I   I           0.00000      0.50000      0.49848 
 I   I           0.50000      0.50000      0.99755 
 Cl  Cl          0.50000      1.00000      0.49849 
