data_PbIBrClCs_ISIF3_IBRION6_IVDW21
_audit_creation_date              Tomorrow
_audit_creation_method            'iGOR'
_symmetry_space_group_name_H-M    'P1'
loop_
_symmetry_equiv_pos_as_xyz
  x,y,z
_cell_length_a                    5.947425
_cell_length_b                    5.571126
_cell_length_c                    5.712300
_cell_angle_alpha                 90.0000
_cell_angle_beta                  89.9991
_cell_angle_gamma                 90.0001
loop_
_atom_site_label
_atom_site_type_symbol
_atom_site_fract_x
_atom_site_fract_y
_atom_site_fract_z
 Cs  Cs          0.00000      0.00000      0.00045 
 Pb  Pb          0.50000      0.50000      0.49837 
 I   I           0.99999      0.50000      0.49788 
 Br  Br          0.50000      0.50000      0.99814 
 Cl  Cl          0.50000      0.00000      0.49786 
