
#======================================================================
# CRYSTAL DATA
#----------------------------------------------------------------------
data_VESTA_phase_1

_chemical_name_common                  'New structure                         '
_cell_length_a                         6.456240
_cell_length_b                         5.841802
_cell_length_c                         6.037729
_cell_angle_alpha                      95.000000
_cell_angle_beta                       95.000000
_cell_angle_gamma                      95.000000
_cell_volume                           224.957240
_space_group_name_H-M_alt              'P 1'
_space_group_IT_number                 1

loop_
_space_group_symop_operation_xyz
   'x, y, z'

loop_
   _atom_site_label
   _atom_site_occupancy
   _atom_site_fract_x
   _atom_site_fract_y
   _atom_site_fract_z
   _atom_site_adp_type
   _atom_site_B_iso_or_equiv
   _atom_site_type_symbol
   C1          1.0     0.503405     0.578774     0.490308    Biso  1.000000 C
   N1          1.0     0.672052     0.469900     0.479060    Biso  1.000000 N
   N2          1.0     0.318014     0.486765     0.525411    Biso  1.000000 N
   H1          1.0     0.519214     0.762434     0.466528    Biso  1.000000 H
   H2          1.0     0.806091     0.562490     0.448731    Biso  1.000000 H
   H3          1.0     0.676403     0.298269     0.494972    Biso  1.000000 H
   H4          1.0     0.285744     0.317326     0.550753    Biso  1.000000 H
   H5          1.0     0.200817     0.592409     0.535217    Biso  1.000000 H
   Pb1         1.0     0.006060     0.991367     0.006607    Biso  1.000000 Pb
   I1          1.0     0.501873     0.012846     0.008686    Biso  1.000000 I
   Br1         1.0     0.001726     0.491812     0.987536    Biso  1.000000 Br
   Br2         1.0     0.008601     0.962415     0.506190    Biso  1.000000 Br
