
#======================================================================
# CRYSTAL DATA
#----------------------------------------------------------------------
data_VESTA_phase_1

_chemical_name_common                  'MAPbI3-cubic-CONTCAR_vicent           '
_cell_length_a                         6.518880
_cell_length_b                         6.099650
_cell_length_c                         6.187370
_cell_angle_alpha                      90.000000
_cell_angle_beta                       90.000000
_cell_angle_gamma                      90.000000
_cell_volume                           246.027675
_space_group_name_H-M_alt              'P 1'
_space_group_IT_number                 1

loop_
_space_group_symop_operation_xyz
   'x, y, z'

loop_
   _atom_site_label
   _atom_site_occupancy
   _atom_site_fract_x
   _atom_site_fract_y
   _atom_site_fract_z
   _atom_site_adp_type
   _atom_site_B_iso_or_equiv
   _atom_site_type_symbol
   C1          1.0     0.438232     0.489753     0.478909    Biso  1.000000 C
   N1          1.0     0.659605     0.489645     0.540657    Biso  1.000000 N
   H1          1.0     0.426256     0.489661     0.302516    Biso  1.000000 H
   H2          1.0     0.366042     0.636992     0.545851    Biso  1.000000 H
   H3          1.0     0.365883     0.342692     0.546015    Biso  1.000000 H
   H4          1.0     0.735428     0.627640     0.483066    Biso  1.000000 H
   H5          1.0     0.735301     0.351541     0.483164    Biso  1.000000 H
   H6          1.0     0.681897     0.489701     0.707124    Biso  1.000000 H
   Pb1         1.0     0.985945     0.989662     0.994172    Biso  1.000000 Pb
   I1          1.0     0.464247     0.989707     0.956573    Biso  1.000000 I
   Br1         1.0     0.929886     0.989657     0.477004    Biso  1.000000 Br
   Br2         1.0     0.936549     0.489688     0.003069    Biso  1.000000 Br
