
#======================================================================
# CRYSTAL DATA
#----------------------------------------------------------------------
data_VESTA_phase_1

_chemical_name_common                  'New structure                         '
_cell_length_a                         6.456240
_cell_length_b                         5.841802
_cell_length_c                         6.037729
_cell_angle_alpha                      90.000000
_cell_angle_beta                       90.000000
_cell_angle_gamma                      92.000000
_cell_volume                           227.580710
_space_group_name_H-M_alt              'P 1'
_space_group_IT_number                 1

loop_
_space_group_symop_operation_xyz
   'x, y, z'

loop_
   _atom_site_label
   _atom_site_occupancy
   _atom_site_fract_x
   _atom_site_fract_y
   _atom_site_fract_z
   _atom_site_adp_type
   _atom_site_B_iso_or_equiv
   _atom_site_type_symbol
   C1          1.0     0.501706     0.576514     0.500000    Biso  1.000000 C
   N1          1.0     0.680514     0.476888     0.500000    Biso  1.000000 N
   N2          1.0     0.318198     0.473200     0.500000    Biso  1.000000 N
   H1          1.0     0.506220     0.763194     0.500000    Biso  1.000000 H
   H2          1.0     0.811142     0.579789     0.500000    Biso  1.000000 H
   H3          1.0     0.696843     0.304199     0.500000    Biso  1.000000 H
   H4          1.0     0.293134     0.299657     0.500000    Biso  1.000000 H
   H5          1.0     0.192164     0.573158     0.500000    Biso  1.000000 H
   Pb1         1.0     0.000006     0.999772     0.000000    Biso  1.000000 Pb
   I1          1.0     0.499909     0.008333     0.000000    Biso  1.000000 I
   Br1         1.0     0.000063     0.500001     0.000000    Biso  1.000000 Br
   Br2         1.0     0.000099     0.972104     0.500000    Biso  1.000000 Br
