
#======================================================================
# CRYSTAL DATA
#----------------------------------------------------------------------
data_VESTA_phase_1

_chemical_name_common                  'New structure                         '
_cell_length_a                         6.456240
_cell_length_b                         6.041800
_cell_length_c                         6.037729
_cell_angle_alpha                      90.000000
_cell_angle_beta                       90.000000
_cell_angle_gamma                      90.000000
_cell_volume                           235.515553
_space_group_name_H-M_alt              'P 1'
_space_group_IT_number                 1

loop_
_space_group_symop_operation_xyz
   'x, y, z'

loop_
   _atom_site_label
   _atom_site_occupancy
   _atom_site_fract_x
   _atom_site_fract_y
   _atom_site_fract_z
   _atom_site_adp_type
   _atom_site_B_iso_or_equiv
   _atom_site_type_symbol
   C1          1.0     0.500001     0.574253     0.500000    Biso  1.000000 C
   N1          1.0     0.681090     0.476084     0.500000    Biso  1.000000 N
   N2          1.0     0.318908     0.476084     0.500000    Biso  1.000000 N
   H1          1.0     0.500000     0.754774     0.500000    Biso  1.000000 H
   H2          1.0     0.809438     0.573886     0.500000    Biso  1.000000 H
   H3          1.0     0.701083     0.308712     0.500000    Biso  1.000000 H
   H4          1.0     0.298917     0.308712     0.500000    Biso  1.000000 H
   H5          1.0     0.190562     0.573886     0.500000    Biso  1.000000 H
   Pb1         1.0     0.000000     0.999649     0.000000    Biso  1.000000 Pb
   I1          1.0     0.500000     0.008145     0.000000    Biso  1.000000 I
   Br1         1.0     0.000000     0.500234     0.000000    Biso  1.000000 Br
   Br2         1.0     0.000000     0.972387     0.500000    Biso  1.000000 Br
