
#======================================================================
# CRYSTAL DATA
#----------------------------------------------------------------------
data_VESTA_phase_1

_chemical_name_common                  'New structure                         '
_cell_length_a                         6.456240
_cell_length_b                         5.841802
_cell_length_c                         6.037729
_cell_angle_alpha                      90.000000
_cell_angle_beta                       90.000000
_cell_angle_gamma                      85.000000
_cell_volume                           226.852889
_space_group_name_H-M_alt              'P 1'
_space_group_IT_number                 1

loop_
_space_group_symop_operation_xyz
   'x, y, z'

loop_
   _atom_site_label
   _atom_site_occupancy
   _atom_site_fract_x
   _atom_site_fract_y
   _atom_site_fract_z
   _atom_site_adp_type
   _atom_site_B_iso_or_equiv
   _atom_site_type_symbol
   C1          1.0     0.494660     0.578398     0.500000    Biso  1.000000 C
   N1          1.0     0.684501     0.478942     0.500000    Biso  1.000000 N
   N2          1.0     0.323471     0.472972     0.500000    Biso  1.000000 N
   H1          1.0     0.477600     0.765889     0.500000    Biso  1.000000 H
   H2          1.0     0.804197     0.581741     0.500000    Biso  1.000000 H
   H3          1.0     0.720245     0.305069     0.500000    Biso  1.000000 H
   H4          1.0     0.321456     0.298965     0.500000    Biso  1.000000 H
   H5          1.0     0.185637     0.572104     0.500000    Biso  1.000000 H
   Pb1         1.0     0.999470     0.993992     0.000000    Biso  1.000000 Pb
   I1          1.0     0.501548     0.022512     0.000000    Biso  1.000000 I
   Br1         1.0     0.995525     0.494527     0.000000    Biso  1.000000 Br
   Br2         1.0     0.991690     0.961696     0.500000    Biso  1.000000 Br
