
#======================================================================
# CRYSTAL DATA
#----------------------------------------------------------------------
data_VESTA_phase_1

_chemical_name_common                  'MAPbI3-cubic-CONTCAR_vicent           '
_cell_length_a                         6.018880
_cell_length_b                         5.599650
_cell_length_c                         5.687370
_cell_angle_alpha                      90.000000
_cell_angle_beta                       90.000000
_cell_angle_gamma                      90.000000
_cell_volume                           191.684953
_space_group_name_H-M_alt              'P 1'
_space_group_IT_number                 1

loop_
_space_group_symop_operation_xyz
   'x, y, z'

loop_
   _atom_site_label
   _atom_site_occupancy
   _atom_site_fract_x
   _atom_site_fract_y
   _atom_site_fract_z
   _atom_site_adp_type
   _atom_site_B_iso_or_equiv
   _atom_site_type_symbol
   C1          1.0     0.414326     0.489754     0.468461    Biso  1.000000 C
   N1          1.0     0.650105     0.489653     0.544137    Biso  1.000000 N
   H1          1.0     0.408206     0.489655     0.276372    Biso  1.000000 H
   H2          1.0     0.333899     0.650386     0.537412    Biso  1.000000 H
   H3          1.0     0.333730     0.329291     0.537581    Biso  1.000000 H
   H4          1.0     0.735296     0.639180     0.484079    Biso  1.000000 H
   H5          1.0     0.735159     0.339984     0.484210    Biso  1.000000 H
   H6          1.0     0.668045     0.489726     0.725471    Biso  1.000000 H
   Pb1         1.0     0.019501     0.989642     0.980523    Biso  1.000000 Pb
   I1          1.0     0.510635     0.989719     0.963928    Biso  1.000000 I
   Br1         1.0     0.961617     0.989690     0.480518    Biso  1.000000 Br
   Br2         1.0     0.954751     0.489659     0.035428    Biso  1.000000 Br
