
#======================================================================
# CRYSTAL DATA
#----------------------------------------------------------------------
data_VESTA_phase_1

_chemical_name_common                  'New structure                         '
_cell_length_a                         6.456240
_cell_length_b                         5.841802
_cell_length_c                         6.037729
_cell_angle_alpha                      90.000000
_cell_angle_beta                       90.000000
_cell_angle_gamma                      83.000000
_cell_volume                           226.022044
_space_group_name_H-M_alt              'P 1'
_space_group_IT_number                 1

loop_
_space_group_symop_operation_xyz
   'x, y, z'

loop_
   _atom_site_label
   _atom_site_occupancy
   _atom_site_fract_x
   _atom_site_fract_y
   _atom_site_fract_z
   _atom_site_adp_type
   _atom_site_B_iso_or_equiv
   _atom_site_type_symbol
   C1          1.0     0.491283     0.579873     0.500000    Biso  1.000000 C
   N1          1.0     0.685864     0.485209     0.500000    Biso  1.000000 N
   N2          1.0     0.326740     0.468500     0.500000    Biso  1.000000 N
   H1          1.0     0.463135     0.767812     0.500000    Biso  1.000000 H
   H2          1.0     0.799669     0.591576     0.500000    Biso  1.000000 H
   H3          1.0     0.730693     0.311031     0.500000    Biso  1.000000 H
   H4          1.0     0.335147     0.293694     0.500000    Biso  1.000000 H
   H5          1.0     0.183795     0.563824     0.500000    Biso  1.000000 H
   Pb1         1.0     0.998407     0.991637     0.000000    Biso  1.000000 Pb
   I1          1.0     0.501779     0.021897     0.000000    Biso  1.000000 I
   Br1         1.0     0.992907     0.491263     0.000000    Biso  1.000000 Br
   Br2         1.0     0.990581     0.960489     0.500000    Biso  1.000000 Br
