
#======================================================================
# CRYSTAL DATA
#----------------------------------------------------------------------
data_VESTA_phase_1

_chemical_name_common                  'New structure                         '
_cell_length_a                         6.456240
_cell_length_b                         5.841800
_cell_length_c                         6.037730
_cell_angle_alpha                      85.000000
_cell_angle_beta                       90.000000
_cell_angle_gamma                      90.000000
_cell_volume                           226.852869
_space_group_name_H-M_alt              'P 1'
_space_group_IT_number                 1

loop_
_space_group_symop_operation_xyz
   'x, y, z'

loop_
   _atom_site_label
   _atom_site_occupancy
   _atom_site_fract_x
   _atom_site_fract_y
   _atom_site_fract_z
   _atom_site_adp_type
   _atom_site_B_iso_or_equiv
   _atom_site_type_symbol
   C1          1.0     0.500001     0.577524     0.504447    Biso  1.000000 C
   N1          1.0     0.680889     0.476130     0.500364    Biso  1.000000 N
   N2          1.0     0.319109     0.476130     0.500364    Biso  1.000000 N
   H1          1.0     0.500000     0.763413     0.512961    Biso  1.000000 H
   H2          1.0     0.809490     0.576540     0.505165    Biso  1.000000 H
   H3          1.0     0.699725     0.303853     0.492877    Biso  1.000000 H
   H4          1.0     0.300275     0.303853     0.492877    Biso  1.000000 H
   H5          1.0     0.190510     0.576540     0.505165    Biso  1.000000 H
   Pb1         1.0     0.000000     0.996449     0.995162    Biso  1.000000 Pb
   I1          1.0     0.500000     0.018809     0.987032    Biso  1.000000 I
   Br1         1.0     0.000000     0.496786     0.009499    Biso  1.000000 Br
   Br2         1.0     0.000000     0.960781     0.494086    Biso  1.000000 Br
