
#======================================================================
# CRYSTAL DATA
#----------------------------------------------------------------------
data_VESTA_phase_1

_chemical_name_common                  'New structure                         '
_cell_length_a                         6.456240
_cell_length_b                         5.841800
_cell_length_c                         6.037730
_cell_angle_alpha                      87.000000
_cell_angle_beta                       90.000000
_cell_angle_gamma                      90.000000
_cell_volume                           227.407328
_space_group_name_H-M_alt              'P 1'
_space_group_IT_number                 1

loop_
_space_group_symop_operation_xyz
   'x, y, z'

loop_
   _atom_site_label
   _atom_site_occupancy
   _atom_site_fract_x
   _atom_site_fract_y
   _atom_site_fract_z
   _atom_site_adp_type
   _atom_site_B_iso_or_equiv
   _atom_site_type_symbol
   C1          1.0     0.500001     0.576277     0.500282    Biso  1.000000 C
   N1          1.0     0.681204     0.475083     0.499987    Biso  1.000000 N
   N2          1.0     0.318794     0.475083     0.499987    Biso  1.000000 N
   H1          1.0     0.500000     0.762756     0.500314    Biso  1.000000 H
   H2          1.0     0.809552     0.576458     0.500381    Biso  1.000000 H
   H3          1.0     0.701776     0.302218     0.499654    Biso  1.000000 H
   H4          1.0     0.298224     0.302218     0.499654    Biso  1.000000 H
   H5          1.0     0.190448     0.576458     0.500381    Biso  1.000000 H
   Pb1         1.0     0.000000     0.999839     0.000087    Biso  1.000000 Pb
   I1          1.0     0.500000     0.008303     0.999389    Biso  1.000000 I
   Br1         1.0     0.000000     0.499965     0.000488    Biso  1.000000 Br
   Br2         1.0     0.000000     0.972149     0.499395    Biso  1.000000 Br
