
#======================================================================
# CRYSTAL DATA
#----------------------------------------------------------------------
data_VESTA_phase_1

_chemical_name_common                  'New structure                         '
_cell_length_a                         6.456240
_cell_length_b                         5.841800
_cell_length_c                         6.037730
_cell_angle_alpha                      94.000000
_cell_angle_beta                       90.000000
_cell_angle_gamma                      90.000000
_cell_volume                           227.164697
_space_group_name_H-M_alt              'P 1'
_space_group_IT_number                 1

loop_
_space_group_symop_operation_xyz
   'x, y, z'

loop_
   _atom_site_label
   _atom_site_occupancy
   _atom_site_fract_x
   _atom_site_fract_y
   _atom_site_fract_z
   _atom_site_adp_type
   _atom_site_B_iso_or_equiv
   _atom_site_type_symbol
   C1          1.0     0.500001     0.576218     0.499593    Biso  1.000000 C
   N1          1.0     0.681226     0.475124     0.500016    Biso  1.000000 N
   N2          1.0     0.318772     0.475124     0.500016    Biso  1.000000 N
   H1          1.0     0.500000     0.762717     0.499539    Biso  1.000000 H
   H2          1.0     0.809604     0.576439     0.499448    Biso  1.000000 H
   H3          1.0     0.701743     0.302271     0.500502    Biso  1.000000 H
   H4          1.0     0.298257     0.302271     0.500502    Biso  1.000000 H
   H5          1.0     0.190396     0.576439     0.499448    Biso  1.000000 H
   Pb1         1.0     0.000000     0.999872     0.999874    Biso  1.000000 Pb
   I1          1.0     0.500000     0.008401     0.000892    Biso  1.000000 I
   Br1         1.0     0.000000     0.499879     0.999288    Biso  1.000000 Br
   Br2         1.0     0.000000     0.972052     0.500881    Biso  1.000000 Br
