
#======================================================================
# CRYSTAL DATA
#----------------------------------------------------------------------
data_VESTA_phase_1

_chemical_name_common                  'New structure                         '
_cell_length_a                         6.456240
_cell_length_b                         5.841802
_cell_length_c                         6.037729
_cell_angle_alpha                      90.000000
_cell_angle_beta                       90.000000
_cell_angle_gamma                      88.000000
_cell_volume                           227.580710
_space_group_name_H-M_alt              'P 1'
_space_group_IT_number                 1

loop_
_space_group_symop_operation_xyz
   'x, y, z'

loop_
   _atom_site_label
   _atom_site_occupancy
   _atom_site_fract_x
   _atom_site_fract_y
   _atom_site_fract_z
   _atom_site_adp_type
   _atom_site_B_iso_or_equiv
   _atom_site_type_symbol
   C1          1.0     0.498294     0.576514     0.500000    Biso  1.000000 C
   N1          1.0     0.681802     0.473200     0.500000    Biso  1.000000 N
   N2          1.0     0.319486     0.476888     0.500000    Biso  1.000000 N
   H1          1.0     0.493779     0.763194     0.500000    Biso  1.000000 H
   H2          1.0     0.807836     0.573158     0.500000    Biso  1.000000 H
   H3          1.0     0.706866     0.299657     0.500000    Biso  1.000000 H
   H4          1.0     0.303157     0.304199     0.500000    Biso  1.000000 H
   H5          1.0     0.188858     0.579789     0.500000    Biso  1.000000 H
   Pb1         1.0     0.999994     0.999771     0.000000    Biso  1.000000 Pb
   I1          1.0     0.500091     0.008333     0.000000    Biso  1.000000 I
   Br1         1.0     0.999936     0.500001     0.000000    Biso  1.000000 Br
   Br2         1.0     0.999900     0.972104     0.500000    Biso  1.000000 Br
