
#======================================================================
# CRYSTAL DATA
#----------------------------------------------------------------------
data_VESTA_phase_1

_chemical_name_common                  'New structure                         '
_cell_length_a                         6.456240
_cell_length_b                         5.841802
_cell_length_c                         6.037729
_cell_angle_alpha                      90.000000
_cell_angle_beta                       90.000000
_cell_angle_gamma                      93.000000
_cell_volume                           227.407349
_space_group_name_H-M_alt              'P 1'
_space_group_IT_number                 1

loop_
_space_group_symop_operation_xyz
   'x, y, z'

loop_
   _atom_site_label
   _atom_site_occupancy
   _atom_site_fract_x
   _atom_site_fract_y
   _atom_site_fract_z
   _atom_site_adp_type
   _atom_site_B_iso_or_equiv
   _atom_site_type_symbol
   C1          1.0     0.502541     0.576626     0.500000    Biso  1.000000 C
   N1          1.0     0.680192     0.477784     0.500000    Biso  1.000000 N
   N2          1.0     0.317821     0.472261     0.500000    Biso  1.000000 N
   H1          1.0     0.509353     0.763481     0.500000    Biso  1.000000 H
   H2          1.0     0.812084     0.581495     0.500000    Biso  1.000000 H
   H3          1.0     0.694366     0.305079     0.500000    Biso  1.000000 H
   H4          1.0     0.290588     0.298470     0.500000    Biso  1.000000 H
   H5          1.0     0.192924     0.571492     0.500000    Biso  1.000000 H
   Pb1         1.0     0.000003     0.999741     0.000000    Biso  1.000000 Pb
   I1          1.0     0.499864     0.008368     0.000000    Biso  1.000000 I
   Br1         1.0     0.000103     0.499981     0.000000    Biso  1.000000 Br
   Br2         1.0     0.000161     0.972029     0.500000    Biso  1.000000 Br
