
#======================================================================
# CRYSTAL DATA
#----------------------------------------------------------------------
data_VESTA_phase_1

_chemical_name_common                  'New structure                         '
_cell_length_a                         6.456240
_cell_length_b                         5.841802
_cell_length_c                         6.037729
_cell_angle_alpha                      90.000000
_cell_angle_beta                       85.000000
_cell_angle_gamma                      90.000000
_cell_volume                           226.852889
_space_group_name_H-M_alt              'P 1'
_space_group_IT_number                 1

loop_
_space_group_symop_operation_xyz
   'x, y, z'

loop_
   _atom_site_label
   _atom_site_occupancy
   _atom_site_fract_x
   _atom_site_fract_y
   _atom_site_fract_z
   _atom_site_adp_type
   _atom_site_B_iso_or_equiv
   _atom_site_type_symbol
   C1          1.0     0.500001     0.577789     0.500000    Biso  1.000000 C
   N1          1.0     0.677778     0.475921     0.522512    Biso  1.000000 N
   N2          1.0     0.322220     0.475921     0.477488    Biso  1.000000 N
   H1          1.0     0.500000     0.764372     0.500000    Biso  1.000000 H
   H2          1.0     0.804159     0.576611     0.540354    Biso  1.000000 H
   H3          1.0     0.696075     0.302740     0.527100    Biso  1.000000 H
   H4          1.0     0.303925     0.302740     0.472900    Biso  1.000000 H
   H5          1.0     0.195841     0.576611     0.459646    Biso  1.000000 H
   Pb1         1.0     0.000000     0.994229     0.000000    Biso  1.000000 Pb
   I1          1.0     0.500000     0.018942     0.000000    Biso  1.000000 I
   Br1         1.0     0.000000     0.495353     0.000000    Biso  1.000000 Br
   Br2         1.0     0.000000     0.965577     0.500000    Biso  1.000000 Br
