
#======================================================================
# CRYSTAL DATA
#----------------------------------------------------------------------
data_VESTA_phase_1

_chemical_name_common                  'New structure                         '
_cell_length_a                         6.456240
_cell_length_b                         5.841802
_cell_length_c                         6.037729
_cell_angle_alpha                      90.000000
_cell_angle_beta                       94.000000
_cell_angle_gamma                      90.000000
_cell_volume                           227.164717
_space_group_name_H-M_alt              'P 1'
_space_group_IT_number                 1

loop_
_space_group_symop_operation_xyz
   'x, y, z'

loop_
   _atom_site_label
   _atom_site_occupancy
   _atom_site_fract_x
   _atom_site_fract_y
   _atom_site_fract_z
   _atom_site_adp_type
   _atom_site_B_iso_or_equiv
   _atom_site_type_symbol
   C1          1.0     0.500001     0.578115     0.500000    Biso  1.000000 C
   N1          1.0     0.680222     0.476006     0.494134    Biso  1.000000 N
   N2          1.0     0.319776     0.476006     0.505866    Biso  1.000000 N
   H1          1.0     0.500000     0.764770     0.500000    Biso  1.000000 H
   H2          1.0     0.809070     0.576803     0.495703    Biso  1.000000 H
   H3          1.0     0.699010     0.302850     0.492366    Biso  1.000000 H
   H4          1.0     0.300990     0.302850     0.507634    Biso  1.000000 H
   H5          1.0     0.190930     0.576803     0.504297    Biso  1.000000 H
   Pb1         1.0     0.000000     0.996675     0.000000    Biso  1.000000 Pb
   I1          1.0     0.500000     0.017546     0.000000    Biso  1.000000 I
   Br1         1.0     0.000000     0.496193     0.000000    Biso  1.000000 Br
   Br2         1.0     0.000000     0.962191     0.500000    Biso  1.000000 Br
