
#======================================================================
# CRYSTAL DATA
#----------------------------------------------------------------------
data_VESTA_phase_1

_chemical_name_common                  'New structure                         '
_cell_length_a                         6.456240
_cell_length_b                         5.841802
_cell_length_c                         6.037729
_cell_angle_alpha                      90.000000
_cell_angle_beta                       90.000000
_cell_angle_gamma                      84.000000
_cell_volume                           226.471959
_space_group_name_H-M_alt              'P 1'
_space_group_IT_number                 1

loop_
_space_group_symop_operation_xyz
   'x, y, z'

loop_
   _atom_site_label
   _atom_site_occupancy
   _atom_site_fract_x
   _atom_site_fract_y
   _atom_site_fract_z
   _atom_site_adp_type
   _atom_site_B_iso_or_equiv
   _atom_site_type_symbol
   C1          1.0     0.493674     0.578541     0.500000    Biso  1.000000 C
   N1          1.0     0.685324     0.479757     0.500000    Biso  1.000000 N
   N2          1.0     0.324633     0.472057     0.500000    Biso  1.000000 N
   H1          1.0     0.472222     0.766283     0.500000    Biso  1.000000 H
   H2          1.0     0.803087     0.582846     0.500000    Biso  1.000000 H
   H3          1.0     0.723814     0.305502     0.500000    Biso  1.000000 H
   H4          1.0     0.325377     0.297937     0.500000    Biso  1.000000 H
   H5          1.0     0.184962     0.570949     0.500000    Biso  1.000000 H
   Pb1         1.0     0.999520     0.994513     0.000000    Biso  1.000000 Pb
   I1          1.0     0.501790     0.021855     0.000000    Biso  1.000000 I
   Br1         1.0     0.994743     0.494844     0.000000    Biso  1.000000 Br
   Br2         1.0     0.990853     0.961724     0.500000    Biso  1.000000 Br
