
#======================================================================
# CRYSTAL DATA
#----------------------------------------------------------------------
data_VESTA_phase_1

_chemical_name_common                  'New structure                         '
_cell_length_a                         6.456240
_cell_length_b                         5.841802
_cell_length_c                         6.037729
_cell_angle_alpha                      92.000000
_cell_angle_beta                       92.000000
_cell_angle_gamma                      92.000000
_cell_volume                           227.293317
_space_group_name_H-M_alt              'P 1'
_space_group_IT_number                 1

loop_
_space_group_symop_operation_xyz
   'x, y, z'

loop_
   _atom_site_label
   _atom_site_occupancy
   _atom_site_fract_x
   _atom_site_fract_y
   _atom_site_fract_z
   _atom_site_adp_type
   _atom_site_B_iso_or_equiv
   _atom_site_type_symbol
   C1          1.0     0.501710     0.576508     0.499833    Biso  1.000000 C
   N1          1.0     0.680506     0.476904     0.499600    Biso  1.000000 N
   N2          1.0     0.318224     0.473188     0.500409    Biso  1.000000 N
   H1          1.0     0.506235     0.763180     0.499746    Biso  1.000000 H
   H2          1.0     0.811133     0.579798     0.499613    Biso  1.000000 H
   H3          1.0     0.696819     0.304233     0.499908    Biso  1.000000 H
   H4          1.0     0.293135     0.299649     0.500628    Biso  1.000000 H
   H5          1.0     0.192174     0.573141     0.499832    Biso  1.000000 H
   Pb1         1.0     0.000008     0.999792     0.999955    Biso  1.000000 Pb
   I1          1.0     0.499924     0.008347     0.000438    Biso  1.000000 I
   Br1         1.0     0.000060     0.499981     0.999654    Biso  1.000000 Br
   Br2         1.0     0.000073     0.972086     0.500385    Biso  1.000000 Br
