
#======================================================================
# CRYSTAL DATA
#----------------------------------------------------------------------
data_VESTA_phase_1

_chemical_name_common                  'New structure                         '
_cell_length_a                         6.456240
_cell_length_b                         5.841802
_cell_length_c                         6.037729
_cell_angle_alpha                      90.000000
_cell_angle_beta                       90.000000
_cell_angle_gamma                      91.000000
_cell_volume                           227.684748
_space_group_name_H-M_alt              'P 1'
_space_group_IT_number                 1

loop_
_space_group_symop_operation_xyz
   'x, y, z'

loop_
   _atom_site_label
   _atom_site_occupancy
   _atom_site_fract_x
   _atom_site_fract_y
   _atom_site_fract_z
   _atom_site_adp_type
   _atom_site_B_iso_or_equiv
   _atom_site_type_symbol
   C1          1.0     0.500844     0.576404     0.500000    Biso  1.000000 C
   N1          1.0     0.680803     0.476074     0.500000    Biso  1.000000 N
   N2          1.0     0.318527     0.474117     0.500000    Biso  1.000000 N
   H1          1.0     0.503142     0.763001     0.500000    Biso  1.000000 H
   H2          1.0     0.810277     0.578116     0.500000    Biso  1.000000 H
   H3          1.0     0.699324     0.303175     0.500000    Biso  1.000000 H
   H4          1.0     0.295656     0.300857     0.500000    Biso  1.000000 H
   H5          1.0     0.191386     0.574813     0.500000    Biso  1.000000 H
   Pb1         1.0     0.000013     0.999772     0.000000    Biso  1.000000 Pb
   I1          1.0     0.499975     0.008286     0.000000    Biso  1.000000 I
   Br1         1.0     0.000008     0.500023     0.000000    Biso  1.000000 Br
   Br2         1.0     0.000042     0.972170     0.500000    Biso  1.000000 Br
