
#======================================================================
# CRYSTAL DATA
#----------------------------------------------------------------------
data_VESTA_phase_1

_chemical_name_common                  'New structure                         '
_cell_length_a                         6.456240
_cell_length_b                         5.841802
_cell_length_c                         6.037729
_cell_angle_alpha                      89.000000
_cell_angle_beta                       89.000000
_cell_angle_gamma                      89.000000
_cell_volume                           227.616577
_space_group_name_H-M_alt              'P 1'
_space_group_IT_number                 1

loop_
_space_group_symop_operation_xyz
   'x, y, z'

loop_
   _atom_site_label
   _atom_site_occupancy
   _atom_site_fract_x
   _atom_site_fract_y
   _atom_site_fract_z
   _atom_site_adp_type
   _atom_site_B_iso_or_equiv
   _atom_site_type_symbol
   C1          1.0     0.499150     0.576403     0.500081    Biso  1.000000 C
   N1          1.0     0.681466     0.474112     0.500234    Biso  1.000000 N
   N2          1.0     0.319198     0.476082     0.499768    Biso  1.000000 N
   H1          1.0     0.496837     0.762997     0.500111    Biso  1.000000 H
   H2          1.0     0.808614     0.574805     0.500152    Biso  1.000000 H
   H3          1.0     0.704357     0.300855     0.500044    Biso  1.000000 H
   H4          1.0     0.300696     0.303185     0.499735    Biso  1.000000 H
   H5          1.0     0.189722     0.578121     0.500097    Biso  1.000000 H
   Pb1         1.0     0.999988     0.999775     0.000024    Biso  1.000000 Pb
   I1          1.0     0.500031     0.008298     0.999795    Biso  1.000000 I
   Br1         1.0     0.999990     0.500015     0.000159    Biso  1.000000 Br
   Br2         1.0     0.999949     0.972159     0.499800    Biso  1.000000 Br
