
#======================================================================
# CRYSTAL DATA
#----------------------------------------------------------------------
data_VESTA_phase_1

_chemical_name_common                  'New structure                         '
_cell_length_a                         6.456240
_cell_length_b                         5.841802
_cell_length_c                         6.037729
_cell_angle_alpha                      90.000000
_cell_angle_beta                       95.000000
_cell_angle_gamma                      90.000000
_cell_volume                           226.852889
_space_group_name_H-M_alt              'P 1'
_space_group_IT_number                 1

loop_
_space_group_symop_operation_xyz
   'x, y, z'

loop_
   _atom_site_label
   _atom_site_occupancy
   _atom_site_fract_x
   _atom_site_fract_y
   _atom_site_fract_z
   _atom_site_adp_type
   _atom_site_B_iso_or_equiv
   _atom_site_type_symbol
   C1          1.0     0.500001     0.577613     0.500000    Biso  1.000000 C
   N1          1.0     0.678959     0.476005     0.483593    Biso  1.000000 N
   N2          1.0     0.321039     0.476005     0.516407    Biso  1.000000 N
   H1          1.0     0.500000     0.764230     0.500000    Biso  1.000000 H
   H2          1.0     0.806280     0.577221     0.472953    Biso  1.000000 H
   H3          1.0     0.698071     0.302916     0.481149    Biso  1.000000 H
   H4          1.0     0.301929     0.302916     0.518851    Biso  1.000000 H
   H5          1.0     0.193720     0.577221     0.527047    Biso  1.000000 H
   Pb1         1.0     0.000000     0.993295     0.000000    Biso  1.000000 Pb
   I1          1.0     0.500000     0.019785     0.000000    Biso  1.000000 I
   Br1         1.0     0.000000     0.493634     0.000000    Biso  1.000000 Br
   Br2         1.0     0.000000     0.965968     0.500000    Biso  1.000000 Br
