
#======================================================================
# CRYSTAL DATA
#----------------------------------------------------------------------
data_VESTA_phase_1

_chemical_name_common                  'New structure                         '
_cell_length_a                         6.456240
_cell_length_b                         5.841800
_cell_length_c                         6.037730
_cell_angle_alpha                      83.000000
_cell_angle_beta                       90.000000
_cell_angle_gamma                      90.000000
_cell_volume                           226.022024
_space_group_name_H-M_alt              'P 1'
_space_group_IT_number                 1

loop_
_space_group_symop_operation_xyz
   'x, y, z'

loop_
   _atom_site_label
   _atom_site_occupancy
   _atom_site_fract_x
   _atom_site_fract_y
   _atom_site_fract_z
   _atom_site_adp_type
   _atom_site_B_iso_or_equiv
   _atom_site_type_symbol
   C1          1.0     0.500001     0.577643     0.505898    Biso  1.000000 C
   N1          1.0     0.680829     0.476455     0.500504    Biso  1.000000 N
   N2          1.0     0.319169     0.476455     0.500504    Biso  1.000000 N
   H1          1.0     0.500000     0.762416     0.517244    Biso  1.000000 H
   H2          1.0     0.809696     0.575987     0.507237    Biso  1.000000 H
   H3          1.0     0.699966     0.305030     0.489931    Biso  1.000000 H
   H4          1.0     0.300034     0.305030     0.489931    Biso  1.000000 H
   H5          1.0     0.190305     0.575987     0.507237    Biso  1.000000 H
   Pb1         1.0     0.000000     0.997575     0.994061    Biso  1.000000 Pb
   I1          1.0     0.500000     0.017776     0.982809    Biso  1.000000 I
   Br1         1.0     0.000000     0.496994     0.013182    Biso  1.000000 Br
   Br2         1.0     0.000000     0.959460     0.491463    Biso  1.000000 Br
