
#======================================================================
# CRYSTAL DATA
#----------------------------------------------------------------------
data_VESTA_phase_1

_chemical_name_common                  'New structure                         '
_cell_length_a                         6.456240
_cell_length_b                         5.841802
_cell_length_c                         6.037729
_cell_angle_alpha                      90.000000
_cell_angle_beta                       90.000000
_cell_angle_gamma                      94.000000
_cell_volume                           227.164717
_space_group_name_H-M_alt              'P 1'
_space_group_IT_number                 1

loop_
_space_group_symop_operation_xyz
   'x, y, z'

loop_
   _atom_site_label
   _atom_site_occupancy
   _atom_site_fract_x
   _atom_site_fract_y
   _atom_site_fract_z
   _atom_site_adp_type
   _atom_site_B_iso_or_equiv
   _atom_site_type_symbol
   C1          1.0     0.503538     0.577889     0.500000    Biso  1.000000 C
   N1          1.0     0.678667     0.477175     0.500000    Biso  1.000000 N
   N2          1.0     0.317087     0.474100     0.500000    Biso  1.000000 N
   H1          1.0     0.514758     0.764853     0.500000    Biso  1.000000 H
   H2          1.0     0.812811     0.580009     0.500000    Biso  1.000000 H
   H3          1.0     0.688349     0.304090     0.500000    Biso  1.000000 H
   H4          1.0     0.288041     0.300104     0.500000    Biso  1.000000 H
   H5          1.0     0.193326     0.572524     0.500000    Biso  1.000000 H
   Pb1         1.0     0.000118     0.997679     0.000000    Biso  1.000000 Pb
   I1          1.0     0.499558     0.014269     0.000000    Biso  1.000000 I
   Br1         1.0     0.001313     0.497672     0.000000    Biso  1.000000 Br
   Br2         1.0     0.002435     0.966444     0.500000    Biso  1.000000 Br
