
#======================================================================
# CRYSTAL DATA
#----------------------------------------------------------------------
data_VESTA_phase_1

_chemical_name_common                  'New structure                         '
_cell_length_a                         6.456240
_cell_length_b                         5.841802
_cell_length_c                         6.037729
_cell_angle_alpha                      90.000000
_cell_angle_beta                       84.000000
_cell_angle_gamma                      90.000000
_cell_volume                           226.471959
_space_group_name_H-M_alt              'P 1'
_space_group_IT_number                 1

loop_
_space_group_symop_operation_xyz
   'x, y, z'

loop_
   _atom_site_label
   _atom_site_occupancy
   _atom_site_fract_x
   _atom_site_fract_y
   _atom_site_fract_z
   _atom_site_adp_type
   _atom_site_B_iso_or_equiv
   _atom_site_type_symbol
   C1          1.0     0.500001     0.578013     0.500000    Biso  1.000000 C
   N1          1.0     0.674691     0.476315     0.535300    Biso  1.000000 N
   N2          1.0     0.325307     0.476315     0.464700    Biso  1.000000 N
   H1          1.0     0.500000     0.764929     0.500000    Biso  1.000000 H
   H2          1.0     0.798969     0.575843     0.563374    Biso  1.000000 H
   H3          1.0     0.693130     0.303320     0.542383    Biso  1.000000 H
   H4          1.0     0.306870     0.303320     0.457617    Biso  1.000000 H
   H5          1.0     0.201031     0.575843     0.436626    Biso  1.000000 H
   Pb1         1.0     0.000000     0.993698     0.000000    Biso  1.000000 Pb
   I1          1.0     0.500000     0.017030     0.000000    Biso  1.000000 I
   Br1         1.0     0.000000     0.494659     0.000000    Biso  1.000000 Br
   Br2         1.0     0.000000     0.967522     0.500000    Biso  1.000000 Br
