
#======================================================================
# CRYSTAL DATA
#----------------------------------------------------------------------
data_VESTA_phase_1

_chemical_name_common                  'New structure                         '
_cell_length_a                         6.456240
_cell_length_b                         5.841802
_cell_length_c                         6.037729
_cell_angle_alpha                      91.000000
_cell_angle_beta                       91.000000
_cell_angle_gamma                      91.000000
_cell_volume                           227.614155
_space_group_name_H-M_alt              'P 1'
_space_group_IT_number                 1

loop_
_space_group_symop_operation_xyz
   'x, y, z'

loop_
   _atom_site_label
   _atom_site_occupancy
   _atom_site_fract_x
   _atom_site_fract_y
   _atom_site_fract_z
   _atom_site_adp_type
   _atom_site_B_iso_or_equiv
   _atom_site_type_symbol
   C1          1.0     0.500847     0.576403     0.499918    Biso  1.000000 C
   N1          1.0     0.680802     0.476082     0.499796    Biso  1.000000 N
   N2          1.0     0.318534     0.474112     0.500209    Biso  1.000000 N
   H1          1.0     0.503154     0.762997     0.499886    Biso  1.000000 H
   H2          1.0     0.810278     0.578120     0.499830    Biso  1.000000 H
   H3          1.0     0.699311     0.303188     0.499957    Biso  1.000000 H
   H4          1.0     0.295651     0.300853     0.500283    Biso  1.000000 H
   H5          1.0     0.191387     0.574806     0.499912    Biso  1.000000 H
   Pb1         1.0     0.000014     0.999775     0.999974    Biso  1.000000 Pb
   I1          1.0     0.499975     0.008298     0.000209    Biso  1.000000 I
   Br1         1.0     0.000008     0.500016     0.999836    Biso  1.000000 Br
   Br2         1.0     0.000038     0.972159     0.500190    Biso  1.000000 Br
