
#======================================================================
# CRYSTAL DATA
#----------------------------------------------------------------------
data_VESTA_phase_1

_chemical_name_common                  'New structure                         '
_cell_length_a                         6.556240
_cell_length_b                         5.941800
_cell_length_c                         6.137730
_cell_angle_alpha                      90.000000
_cell_angle_beta                       90.000000
_cell_angle_gamma                      90.000000
_cell_volume                           239.100605
_space_group_name_H-M_alt              'P 1'
_space_group_IT_number                 1

loop_
_space_group_symop_operation_xyz
   'x, y, z'

loop_
   _atom_site_label
   _atom_site_occupancy
   _atom_site_fract_x
   _atom_site_fract_y
   _atom_site_fract_z
   _atom_site_adp_type
   _atom_site_B_iso_or_equiv
   _atom_site_type_symbol
   C1          1.0     0.500001     0.574860     0.500000    Biso  1.000000 C
   N1          1.0     0.678705     0.475614     0.500000    Biso  1.000000 N
   N2          1.0     0.321293     0.475614     0.500000    Biso  1.000000 N
   H1          1.0     0.500000     0.758365     0.500000    Biso  1.000000 H
   H2          1.0     0.804704     0.575772     0.500000    Biso  1.000000 H
   H3          1.0     0.699682     0.305576     0.500000    Biso  1.000000 H
   H4          1.0     0.300318     0.305576     0.500000    Biso  1.000000 H
   H5          1.0     0.195296     0.575772     0.500000    Biso  1.000000 H
   Pb1         1.0     0.000000     0.999362     0.000000    Biso  1.000000 Pb
   I1          1.0     0.500000     0.008234     0.000000    Biso  1.000000 I
   Br1         1.0     0.000000     0.499970     0.000000    Biso  1.000000 Br
   Br2         1.0     0.000000     0.972092     0.500000    Biso  1.000000 Br
