
#======================================================================
# CRYSTAL DATA
#----------------------------------------------------------------------
data_VESTA_phase_1

_chemical_name_common                  'MAPbI3-cubic-CONTCAR_vicent           '
_cell_length_a                         5.918880
_cell_length_b                         5.499650
_cell_length_c                         5.587370
_cell_angle_alpha                      90.000000
_cell_angle_beta                       90.000000
_cell_angle_gamma                      90.000000
_cell_volume                           181.878771
_space_group_name_H-M_alt              'P 1'
_space_group_IT_number                 1

loop_
_space_group_symop_operation_xyz
   'x, y, z'

loop_
   _atom_site_label
   _atom_site_occupancy
   _atom_site_fract_x
   _atom_site_fract_y
   _atom_site_fract_z
   _atom_site_adp_type
   _atom_site_B_iso_or_equiv
   _atom_site_type_symbol
   C1          1.0     0.408677     0.489753     0.466134    Biso  1.000000 C
   N1          1.0     0.646737     0.489625     0.547628    Biso  1.000000 N
   H1          1.0     0.406323     0.489643     0.270578    Biso  1.000000 H
   H2          1.0     0.325733     0.653557     0.534290    Biso  1.000000 H
   H3          1.0     0.325517     0.326156     0.534473    Biso  1.000000 H
   H4          1.0     0.734058     0.641683     0.487325    Biso  1.000000 H
   H5          1.0     0.733900     0.337417     0.487430    Biso  1.000000 H
   H6          1.0     0.661863     0.489684     0.732279    Biso  1.000000 H
   Pb1         1.0     0.037756     0.989738     0.972301    Biso  1.000000 Pb
   I1          1.0     0.527263     0.989734     0.968995    Biso  1.000000 I
   Br1         1.0     0.960913     0.989629     0.474332    Biso  1.000000 Br
   Br2         1.0     0.956532     0.489721     0.042355    Biso  1.000000 Br
