
#======================================================================
# CRYSTAL DATA
#----------------------------------------------------------------------
data_VESTA_phase_1

_chemical_name_common                  'New structure                         '
_cell_length_a                         6.456240
_cell_length_b                         5.841800
_cell_length_c                         6.037730
_cell_angle_alpha                      86.000000
_cell_angle_beta                       90.000000
_cell_angle_gamma                      90.000000
_cell_volume                           227.164697
_space_group_name_H-M_alt              'P 1'
_space_group_IT_number                 1

loop_
_space_group_symop_operation_xyz
   'x, y, z'

loop_
   _atom_site_label
   _atom_site_occupancy
   _atom_site_fract_x
   _atom_site_fract_y
   _atom_site_fract_z
   _atom_site_adp_type
   _atom_site_B_iso_or_equiv
   _atom_site_type_symbol
   C1          1.0     0.500001     0.577644     0.502687    Biso  1.000000 C
   N1          1.0     0.680906     0.475987     0.500187    Biso  1.000000 N
   N2          1.0     0.319092     0.475987     0.500187    Biso  1.000000 N
   H1          1.0     0.500000     0.763858     0.506953    Biso  1.000000 H
   H2          1.0     0.809583     0.576518     0.504117    Biso  1.000000 H
   H3          1.0     0.699520     0.303292     0.495450    Biso  1.000000 H
   H4          1.0     0.300480     0.303292     0.495450    Biso  1.000000 H
   H5          1.0     0.190417     0.576518     0.504117    Biso  1.000000 H
   Pb1         1.0     0.000000     0.997903     0.998503    Biso  1.000000 Pb
   I1          1.0     0.500000     0.017032     0.991461    Biso  1.000000 I
   Br1         1.0     0.000000     0.496461     0.006242    Biso  1.000000 Br
   Br2         1.0     0.000000     0.962314     0.494646    Biso  1.000000 Br
