
#======================================================================
# CRYSTAL DATA
#----------------------------------------------------------------------
data_VESTA_phase_1

_chemical_name_common                  'MAPbI3-cubic-CONTCAR_vicent           '
_cell_length_a                         6.618880
_cell_length_b                         6.199650
_cell_length_c                         6.287370
_cell_angle_alpha                      90.000000
_cell_angle_beta                       90.000000
_cell_angle_gamma                      90.000000
_cell_volume                           258.000582
_space_group_name_H-M_alt              'P 1'
_space_group_IT_number                 1

loop_
_space_group_symop_operation_xyz
   'x, y, z'

loop_
   _atom_site_label
   _atom_site_occupancy
   _atom_site_fract_x
   _atom_site_fract_y
   _atom_site_fract_z
   _atom_site_adp_type
   _atom_site_B_iso_or_equiv
   _atom_site_type_symbol
   C1          1.0     0.444454     0.489752     0.480887    Biso  1.000000 C
   N1          1.0     0.663480     0.489652     0.538853    Biso  1.000000 N
   H1          1.0     0.431553     0.489662     0.307068    Biso  1.000000 H
   H2          1.0     0.374013     0.634827     0.547166    Biso  1.000000 H
   H3          1.0     0.373861     0.344819     0.547317    Biso  1.000000 H
   H4          1.0     0.737161     0.625480     0.480502    Biso  1.000000 H
   H5          1.0     0.737053     0.353712     0.480585    Biso  1.000000 H
   H6          1.0     0.688047     0.489697     0.702528    Biso  1.000000 H
   Pb1         1.0     0.978688     0.989657     0.997638    Biso  1.000000 Pb
   I1          1.0     0.445827     0.989712     0.958956    Biso  1.000000 I
   Br1         1.0     0.919928     0.989658     0.470454    Biso  1.000000 Br
   Br2         1.0     0.931207     0.489712     0.006167    Biso  1.000000 Br
