
#======================================================================
# CRYSTAL DATA
#----------------------------------------------------------------------
data_VESTA_phase_1

_chemical_name_common                  'New structure                         '
_cell_length_a                         6.456240
_cell_length_b                         5.841802
_cell_length_c                         6.037729
_cell_angle_alpha                      85.000000
_cell_angle_beta                       85.000000
_cell_angle_gamma                      85.000000
_cell_volume                           225.262257
_space_group_name_H-M_alt              'P 1'
_space_group_IT_number                 1

loop_
_space_group_symop_operation_xyz
   'x, y, z'

loop_
   _atom_site_label
   _atom_site_occupancy
   _atom_site_fract_x
   _atom_site_fract_y
   _atom_site_fract_z
   _atom_site_adp_type
   _atom_site_B_iso_or_equiv
   _atom_site_type_symbol
   C1          1.0     0.482394     0.568925     0.521747    Biso  1.000000 C
   N1          1.0     0.676117     0.491061     0.547509    Biso  1.000000 N
   N2          1.0     0.344034     0.459917     0.433912    Biso  1.000000 N
   H1          1.0     0.431082     0.737798     0.580261    Biso  1.000000 H
   H2          1.0     0.770745     0.591515     0.616188    Biso  1.000000 H
   H3          1.0     0.739851     0.333952     0.501452    Biso  1.000000 H
   H4          1.0     0.380284     0.310076     0.357632    Biso  1.000000 H
   H5          1.0     0.201809     0.543698     0.410155    Biso  1.000000 H
   Pb1         1.0     0.993690     0.001854     0.998371    Biso  1.000000 Pb
   I1          1.0     0.500182     0.015436     0.022443    Biso  1.000000 I
   Br1         1.0     0.994064     0.502102     0.011270    Biso  1.000000 Br
   Br2         1.0     0.985749     0.970473     0.499060    Biso  1.000000 Br
