
#======================================================================
# CRYSTAL DATA
#----------------------------------------------------------------------
data_VESTA_phase_1

_chemical_name_common                  'New structure                         '
_cell_length_a                         6.456240
_cell_length_b                         5.841802
_cell_length_c                         6.037729
_cell_angle_alpha                      97.000000
_cell_angle_beta                       97.000000
_cell_angle_gamma                      97.000000
_cell_volume                           222.166366
_space_group_name_H-M_alt              'P 1'
_space_group_IT_number                 1

loop_
_space_group_symop_operation_xyz
   'x, y, z'

loop_
   _atom_site_label
   _atom_site_occupancy
   _atom_site_fract_x
   _atom_site_fract_y
   _atom_site_fract_z
   _atom_site_adp_type
   _atom_site_B_iso_or_equiv
   _atom_site_type_symbol
   C1          1.0     0.502152     0.579074     0.486481    Biso  1.000000 C
   N1          1.0     0.667609     0.470710     0.477052    Biso  1.000000 N
   N2          1.0     0.317067     0.489226     0.528072    Biso  1.000000 N
   H1          1.0     0.520029     0.759648     0.453985    Biso  1.000000 H
   H2          1.0     0.802145     0.561393     0.442383    Biso  1.000000 H
   H3          1.0     0.668754     0.301417     0.500450    Biso  1.000000 H
   H4          1.0     0.282391     0.323010     0.562703    Biso  1.000000 H
   H5          1.0     0.203784     0.596069     0.539316    Biso  1.000000 H
   Pb1         1.0     0.011289     0.991418     0.008838    Biso  1.000000 Pb
   I1          1.0     0.506913     0.006328     0.013955    Biso  1.000000 I
   Br1         1.0     0.001254     0.490284     0.978850    Biso  1.000000 Br
   Br2         1.0     0.016613     0.958230     0.507917    Biso  1.000000 Br
