
#======================================================================
# CRYSTAL DATA
#----------------------------------------------------------------------
data_VESTA_phase_1

_chemical_name_common                  'MAPbI3-cubic-CONTCAR_vicent           '
_cell_length_a                         6.218880
_cell_length_b                         5.799650
_cell_length_c                         5.887370
_cell_angle_alpha                      90.000000
_cell_angle_beta                       90.000000
_cell_angle_gamma                      90.000000
_cell_volume                           212.341718
_space_group_name_H-M_alt              'P 1'
_space_group_IT_number                 1

loop_
_space_group_symop_operation_xyz
   'x, y, z'

loop_
   _atom_site_label
   _atom_site_occupancy
   _atom_site_fract_x
   _atom_site_fract_y
   _atom_site_fract_z
   _atom_site_adp_type
   _atom_site_B_iso_or_equiv
   _atom_site_type_symbol
   C1          1.0     0.424289     0.489755     0.473424    Biso  1.000000 C
   N1          1.0     0.655324     0.489637     0.540131    Biso  1.000000 N
   H1          1.0     0.413668     0.489644     0.287744    Biso  1.000000 H
   H2          1.0     0.348840     0.645190     0.542786    Biso  1.000000 H
   H3          1.0     0.348658     0.334524     0.542973    Biso  1.000000 H
   H4          1.0     0.735705     0.634200     0.479352    Biso  1.000000 H
   H5          1.0     0.735566     0.344929     0.479460    Biso  1.000000 H
   H6          1.0     0.676405     0.489698     0.715054    Biso  1.000000 H
   Pb1         1.0     0.994871     0.989717     0.984187    Biso  1.000000 Pb
   I1          1.0     0.486822     0.989747     0.959566    Biso  1.000000 I
   Br1         1.0     0.953112     0.989604     0.483457    Biso  1.000000 Br
   Br2         1.0     0.952009     0.489694     0.029985    Biso  1.000000 Br
