
#======================================================================
# CRYSTAL DATA
#----------------------------------------------------------------------
data_VESTA_phase_1

_chemical_name_common                  'New structure                         '
_cell_length_a                         6.456240
_cell_length_b                         5.841802
_cell_length_c                         6.037729
_cell_angle_alpha                      90.000000
_cell_angle_beta                       86.000000
_cell_angle_gamma                      90.000000
_cell_volume                           227.164717
_space_group_name_H-M_alt              'P 1'
_space_group_IT_number                 1

loop_
_space_group_symop_operation_xyz
   'x, y, z'

loop_
   _atom_site_label
   _atom_site_occupancy
   _atom_site_fract_x
   _atom_site_fract_y
   _atom_site_fract_z
   _atom_site_adp_type
   _atom_site_B_iso_or_equiv
   _atom_site_type_symbol
   C1          1.0     0.500001     0.578114     0.500000    Biso  1.000000 C
   N1          1.0     0.680223     0.476007     0.505864    Biso  1.000000 N
   N2          1.0     0.319775     0.476007     0.494136    Biso  1.000000 N
   H1          1.0     0.500000     0.764769     0.500000    Biso  1.000000 H
   H2          1.0     0.809070     0.576804     0.504298    Biso  1.000000 H
   H3          1.0     0.699009     0.302851     0.507634    Biso  1.000000 H
   H4          1.0     0.300991     0.302851     0.492366    Biso  1.000000 H
   H5          1.0     0.190930     0.576804     0.495702    Biso  1.000000 H
   Pb1         1.0     0.000000     0.996673     0.000000    Biso  1.000000 Pb
   I1          1.0     0.500000     0.017546     0.000000    Biso  1.000000 I
   Br1         1.0     0.000000     0.496191     0.000000    Biso  1.000000 Br
   Br2         1.0     0.000000     0.962192     0.500000    Biso  1.000000 Br
