
#======================================================================
# CRYSTAL DATA
#----------------------------------------------------------------------
data_VESTA_phase_1

_chemical_name_common                  'New structure                         '
_cell_length_a                         6.456240
_cell_length_b                         5.841802
_cell_length_c                         6.037729
_cell_angle_alpha                      94.000000
_cell_angle_beta                       94.000000
_cell_angle_gamma                      94.000000
_cell_volume                           225.973328
_space_group_name_H-M_alt              'P 1'
_space_group_IT_number                 1

loop_
_space_group_symop_operation_xyz
   'x, y, z'

loop_
   _atom_site_label
   _atom_site_occupancy
   _atom_site_fract_x
   _atom_site_fract_y
   _atom_site_fract_z
   _atom_site_adp_type
   _atom_site_B_iso_or_equiv
   _atom_site_type_symbol
   C1          1.0     0.503417     0.578620     0.493970    Biso  1.000000 C
   N1          1.0     0.675874     0.473375     0.488118    Biso  1.000000 N
   N2          1.0     0.317272     0.480764     0.513294    Biso  1.000000 N
   H1          1.0     0.516087     0.764170     0.480435    Biso  1.000000 H
   H2          1.0     0.810326     0.570958     0.472231    Biso  1.000000 H
   H3          1.0     0.682480     0.300699     0.496837    Biso  1.000000 H
   H4          1.0     0.286640     0.308941     0.528789    Biso  1.000000 H
   H5          1.0     0.195815     0.583105     0.515858    Biso  1.000000 H
   Pb1         1.0     0.003022     0.993507     0.004895    Biso  1.000000 Pb
   I1          1.0     0.500556     0.017153     0.010572    Biso  1.000000 I
   Br1         1.0     0.002766     0.493639     0.989434    Biso  1.000000 Br
   Br2         1.0     0.005744     0.961874     0.505567    Biso  1.000000 Br
