
#======================================================================
# CRYSTAL DATA
#----------------------------------------------------------------------
data_VESTA_phase_1

_chemical_name_common                  'New structure                         '
_cell_length_a                         6.456240
_cell_length_b                         5.841802
_cell_length_c                         6.037729
_cell_angle_alpha                      88.000000
_cell_angle_beta                       88.000000
_cell_angle_gamma                      88.000000
_cell_volume                           227.312712
_space_group_name_H-M_alt              'P 1'
_space_group_IT_number                 1

loop_
_space_group_symop_operation_xyz
   'x, y, z'

loop_
   _atom_site_label
   _atom_site_occupancy
   _atom_site_fract_x
   _atom_site_fract_y
   _atom_site_fract_z
   _atom_site_adp_type
   _atom_site_B_iso_or_equiv
   _atom_site_type_symbol
   C1          1.0     0.498280     0.576508     0.500165    Biso  1.000000 C
   N1          1.0     0.681775     0.473189     0.500528    Biso  1.000000 N
   N2          1.0     0.319499     0.476902     0.499488    Biso  1.000000 N
   H1          1.0     0.493721     0.763180     0.500241    Biso  1.000000 H
   H2          1.0     0.807829     0.573139     0.500309    Biso  1.000000 H
   H3          1.0     0.706905     0.299656     0.500095    Biso  1.000000 H
   H4          1.0     0.303219     0.304222     0.499452    Biso  1.000000 H
   H5          1.0     0.188867     0.579801     0.500209    Biso  1.000000 H
   Pb1         1.0     0.000003     0.999788     0.000037    Biso  1.000000 Pb
   I1          1.0     0.500101     0.008359     0.999564    Biso  1.000000 I
   Br1         1.0     0.999929     0.499978     0.000336    Biso  1.000000 Br
   Br2         1.0     0.999871     0.972085     0.499575    Biso  1.000000 Br
