
#======================================================================
# CRYSTAL DATA
#----------------------------------------------------------------------
data_VESTA_phase_1

_chemical_name_common                  'New structure                         '
_cell_length_a                         6.456240
_cell_length_b                         5.841802
_cell_length_c                         6.037729
_cell_angle_alpha                      90.000000
_cell_angle_beta                       90.000000
_cell_angle_gamma                      86.000000
_cell_volume                           227.164717
_space_group_name_H-M_alt              'P 1'
_space_group_IT_number                 1

loop_
_space_group_symop_operation_xyz
   'x, y, z'

loop_
   _atom_site_label
   _atom_site_occupancy
   _atom_site_fract_x
   _atom_site_fract_y
   _atom_site_fract_z
   _atom_site_adp_type
   _atom_site_B_iso_or_equiv
   _atom_site_type_symbol
   C1          1.0     0.496495     0.577795     0.500000    Biso  1.000000 C
   N1          1.0     0.682930     0.473852     0.500000    Biso  1.000000 N
   N2          1.0     0.321265     0.477261     0.500000    Biso  1.000000 N
   H1          1.0     0.484919     0.764964     0.500000    Biso  1.000000 H
   H2          1.0     0.806859     0.572070     0.500000    Biso  1.000000 H
   H3          1.0     0.711756     0.300020     0.500000    Biso  1.000000 H
   H4          1.0     0.311583     0.304072     0.500000    Biso  1.000000 H
   H5          1.0     0.187309     0.580567     0.500000    Biso  1.000000 H
   Pb1         1.0     0.999913     0.997919     0.000000    Biso  1.000000 Pb
   I1          1.0     0.500420     0.013919     0.000000    Biso  1.000000 I
   Br1         1.0     0.998796     0.497767     0.000000    Biso  1.000000 Br
   Br2         1.0     0.997757     0.966601     0.500000    Biso  1.000000 Br
