
#======================================================================
# CRYSTAL DATA
#----------------------------------------------------------------------
data_VESTA_phase_1

_chemical_name_common                  'New structure                         '
_cell_length_a                         6.456240
_cell_length_b                         5.641800
_cell_length_c                         6.037729
_cell_angle_alpha                      90.000000
_cell_angle_beta                       90.000000
_cell_angle_gamma                      90.000000
_cell_volume                           219.923140
_space_group_name_H-M_alt              'P 1'
_space_group_IT_number                 1

loop_
_space_group_symop_operation_xyz
   'x, y, z'

loop_
   _atom_site_label
   _atom_site_occupancy
   _atom_site_fract_x
   _atom_site_fract_y
   _atom_site_fract_z
   _atom_site_adp_type
   _atom_site_B_iso_or_equiv
   _atom_site_type_symbol
   C1          1.0     0.500001     0.578729     0.500000    Biso  1.000000 C
   N1          1.0     0.681017     0.473856     0.500000    Biso  1.000000 N
   N2          1.0     0.318981     0.473856     0.500000    Biso  1.000000 N
   H1          1.0     0.500000     0.772069     0.500000    Biso  1.000000 H
   H2          1.0     0.809149     0.579193     0.500000    Biso  1.000000 H
   H3          1.0     0.702631     0.294775     0.500000    Biso  1.000000 H
   H4          1.0     0.297369     0.294775     0.500000    Biso  1.000000 H
   H5          1.0     0.190851     0.579193     0.500000    Biso  1.000000 H
   Pb1         1.0     0.000000     0.999903     0.000000    Biso  1.000000 Pb
   I1          1.0     0.500000     0.008279     0.000000    Biso  1.000000 I
   Br1         1.0     0.000000     0.499890     0.000000    Biso  1.000000 Br
   Br2         1.0     0.000000     0.972290     0.500000    Biso  1.000000 Br
