
#======================================================================
# CRYSTAL DATA
#----------------------------------------------------------------------
data_VESTA_phase_1

_chemical_name_common                  'MAPbI3-cubic-CONTCAR_vicent           '
_cell_length_a                         6.318881
_cell_length_b                         5.899650
_cell_length_c                         5.987367
_cell_angle_alpha                      90.000000
_cell_angle_beta                       90.000000
_cell_angle_gamma                      93.000000
_cell_volume                           222.898252
_space_group_name_H-M_alt              'P 1'
_space_group_IT_number                 1

loop_
_space_group_symop_operation_xyz
   'x, y, z'

loop_
   _atom_site_label
   _atom_site_occupancy
   _atom_site_fract_x
   _atom_site_fract_y
   _atom_site_fract_z
   _atom_site_adp_type
   _atom_site_B_iso_or_equiv
   _atom_site_type_symbol
   C1          1.0     0.429201     0.486929     0.475605    Biso  1.000000 C
   N1          1.0     0.656888     0.487845     0.540002    Biso  1.000000 N
   H1          1.0     0.417695     0.488175     0.293323    Biso  1.000000 H
   H2          1.0     0.361829     0.638532     0.545938    Biso  1.000000 H
   H3          1.0     0.347645     0.333530     0.542893    Biso  1.000000 H
   H4          1.0     0.740651     0.632866     0.483105    Biso  1.000000 H
   H5          1.0     0.730710     0.347879     0.477908    Biso  1.000000 H
   H6          1.0     0.678616     0.484339     0.711773    Biso  1.000000 H
   Pb1         1.0     0.989270     0.992685     0.987574    Biso  1.000000 Pb
   I1          1.0     0.480019     0.987891     0.956337    Biso  1.000000 I
   Br1         1.0     0.945457     0.000627     0.483439    Biso  1.000000 Br
   Br2         1.0     0.947288     0.495042     0.020225    Biso  1.000000 Br
