
#======================================================================
# CRYSTAL DATA
#----------------------------------------------------------------------
data_VESTA_phase_1

_chemical_name_common                  'MAPbI3-cubic-CONTCAR_vicent           '
_cell_length_a                         6.718880
_cell_length_b                         5.899650
_cell_length_c                         5.987367
_cell_angle_alpha                      90.000000
_cell_angle_beta                       90.000000
_cell_angle_gamma                      90.000000
_cell_volume                           237.333480
_space_group_name_H-M_alt              'P 1'
_space_group_IT_number                 1

loop_
_space_group_symop_operation_xyz
   'x, y, z'

loop_
   _atom_site_label
   _atom_site_occupancy
   _atom_site_fract_x
   _atom_site_fract_y
   _atom_site_fract_z
   _atom_site_adp_type
   _atom_site_B_iso_or_equiv
   _atom_site_type_symbol
   C1          1.0     0.438074     0.489759     0.476407    Biso  1.000000 C
   N1          1.0     0.652788     0.489648     0.539609    Biso  1.000000 N
   H1          1.0     0.425591     0.489654     0.294245    Biso  1.000000 H
   H2          1.0     0.368969     0.641862     0.546571    Biso  1.000000 H
   H3          1.0     0.368808     0.337837     0.546752    Biso  1.000000 H
   H4          1.0     0.726763     0.631904     0.479708    Biso  1.000000 H
   H5          1.0     0.726638     0.347262     0.479813    Biso  1.000000 H
   H6          1.0     0.673883     0.489704     0.711474    Biso  1.000000 H
   Pb1         1.0     0.010673     0.989675     0.983377    Biso  1.000000 Pb
   I1          1.0     0.465726     0.989710     0.962830    Biso  1.000000 I
   Br1         1.0     0.930893     0.989652     0.484181    Biso  1.000000 Br
   Br2         1.0     0.936464     0.489675     0.013152    Biso  1.000000 Br
