
#======================================================================
# CRYSTAL DATA
#----------------------------------------------------------------------
data_VESTA_phase_1

_chemical_name_common                  'MAPbI3-cubic-CONTCAR_vicent           '
_cell_length_a                         6.318881
_cell_length_b                         6.099650
_cell_length_c                         5.987367
_cell_angle_alpha                      90.000000
_cell_angle_beta                       90.000000
_cell_angle_gamma                      90.000000
_cell_volume                           230.770830
_space_group_name_H-M_alt              'P 1'
_space_group_IT_number                 1

loop_
_space_group_symop_operation_xyz
   'x, y, z'

loop_
   _atom_site_label
   _atom_site_occupancy
   _atom_site_fract_x
   _atom_site_fract_y
   _atom_site_fract_z
   _atom_site_adp_type
   _atom_site_B_iso_or_equiv
   _atom_site_type_symbol
   C1          1.0     0.429545     0.489770     0.477337    Biso  1.000000 C
   N1          1.0     0.657962     0.489645     0.540477    Biso  1.000000 N
   H1          1.0     0.416605     0.489670     0.294917    Biso  1.000000 H
   H2          1.0     0.355913     0.637320     0.546661    Biso  1.000000 H
   H3          1.0     0.355714     0.342409     0.546846    Biso  1.000000 H
   H4          1.0     0.735987     0.627169     0.479898    Biso  1.000000 H
   H5          1.0     0.735835     0.351982     0.480012    Biso  1.000000 H
   H6          1.0     0.681353     0.489701     0.712355    Biso  1.000000 H
   Pb1         1.0     0.986285     0.989662     0.988504    Biso  1.000000 Pb
   I1          1.0     0.478744     0.989683     0.951151    Biso  1.000000 I
   Br1         1.0     0.942183     0.989660     0.482553    Biso  1.000000 Br
   Br2         1.0     0.949145     0.489670     0.017409    Biso  1.000000 Br
