
#======================================================================
# CRYSTAL DATA
#----------------------------------------------------------------------
data_VESTA_phase_1

_chemical_name_common                  'MAPbI3-cubic-CONTCAR_vicent           '
_cell_length_a                         6.318881
_cell_length_b                         5.999650
_cell_length_c                         5.987367
_cell_angle_alpha                      90.000000
_cell_angle_beta                       90.000000
_cell_angle_gamma                      90.000000
_cell_volume                           226.987488
_space_group_name_H-M_alt              'P 1'
_space_group_IT_number                 1

loop_
_space_group_symop_operation_xyz
   'x, y, z'

loop_
   _atom_site_label
   _atom_site_occupancy
   _atom_site_fract_x
   _atom_site_fract_y
   _atom_site_fract_z
   _atom_site_adp_type
   _atom_site_B_iso_or_equiv
   _atom_site_type_symbol
   C1          1.0     0.429488     0.489772     0.477440    Biso  1.000000 C
   N1          1.0     0.657674     0.489645     0.540195    Biso  1.000000 N
   H1          1.0     0.416417     0.489669     0.295218    Biso  1.000000 H
   H2          1.0     0.355961     0.639910     0.546609    Biso  1.000000 H
   H3          1.0     0.355764     0.339826     0.546794    Biso  1.000000 H
   H4          1.0     0.735796     0.629701     0.480251    Biso  1.000000 H
   H5          1.0     0.735646     0.349445     0.480364    Biso  1.000000 H
   H6          1.0     0.680811     0.489701     0.711995    Biso  1.000000 H
   Pb1         1.0     0.986712     0.989662     0.988019    Biso  1.000000 Pb
   I1          1.0     0.478975     0.989681     0.950940    Biso  1.000000 I
   Br1         1.0     0.942916     0.989660     0.482366    Biso  1.000000 Br
   Br2         1.0     0.949110     0.489669     0.017929    Biso  1.000000 Br
