
#======================================================================
# CRYSTAL DATA
#----------------------------------------------------------------------
data_VESTA_phase_1

_chemical_name_common                  'MAPbI3-cubic-CONTCAR_vicent           '
_cell_length_a                         6.318881
_cell_length_b                         6.299650
_cell_length_c                         5.987367
_cell_angle_alpha                      90.000000
_cell_angle_beta                       90.000000
_cell_angle_gamma                      90.000000
_cell_volume                           238.337531
_space_group_name_H-M_alt              'P 1'
_space_group_IT_number                 1

loop_
_space_group_symop_operation_xyz
   'x, y, z'

loop_
   _atom_site_label
   _atom_site_occupancy
   _atom_site_fract_x
   _atom_site_fract_y
   _atom_site_fract_z
   _atom_site_adp_type
   _atom_site_B_iso_or_equiv
   _atom_site_type_symbol
   C1          1.0     0.429728     0.489768     0.477478    Biso  1.000000 C
   N1          1.0     0.658488     0.489648     0.540531    Biso  1.000000 N
   H1          1.0     0.417127     0.489673     0.295127    Biso  1.000000 H
   H2          1.0     0.355856     0.632345     0.546867    Biso  1.000000 H
   H3          1.0     0.355657     0.347375     0.547049    Biso  1.000000 H
   H4          1.0     0.736447     0.622355     0.479292    Biso  1.000000 H
   H5          1.0     0.736293     0.356799     0.479405    Biso  1.000000 H
   H6          1.0     0.682823     0.489700     0.712535    Biso  1.000000 H
   Pb1         1.0     0.985061     0.989660     0.989722    Biso  1.000000 Pb
   I1          1.0     0.478104     0.989684     0.951107    Biso  1.000000 I
   Br1         1.0     0.940803     0.989661     0.482699    Biso  1.000000 Br
   Br2         1.0     0.948882     0.489673     0.016307    Biso  1.000000 Br
