
#======================================================================
# CRYSTAL DATA
#----------------------------------------------------------------------
data_VESTA_phase_1

_chemical_name_common                  'MAPbI3-cubic-CONTCAR_vicent           '
_cell_length_a                         6.318881
_cell_length_b                         5.899650
_cell_length_c                         5.987367
_cell_angle_alpha                      95.000000
_cell_angle_beta                       95.000000
_cell_angle_gamma                      95.000000
_cell_volume                           220.496725
_space_group_name_H-M_alt              'P 1'
_space_group_IT_number                 1

loop_
_space_group_symop_operation_xyz
   'x, y, z'

loop_
   _atom_site_label
   _atom_site_occupancy
   _atom_site_fract_x
   _atom_site_fract_y
   _atom_site_fract_z
   _atom_site_adp_type
   _atom_site_B_iso_or_equiv
   _atom_site_type_symbol
   C1          1.0     0.425157     0.482271     0.469096    Biso  1.000000 C
   N1          1.0     0.658060     0.486171     0.536913    Biso  1.000000 N
   H1          1.0     0.400226     0.476295     0.285473    Biso  1.000000 H
   H2          1.0     0.368397     0.638019     0.546535    Biso  1.000000 H
   H3          1.0     0.342155     0.331341     0.528428    Biso  1.000000 H
   H4          1.0     0.742076     0.629934     0.486946    Biso  1.000000 H
   H5          1.0     0.722294     0.342263     0.468850    Biso  1.000000 H
   H6          1.0     0.692566     0.490528     0.710363    Biso  1.000000 H
   Pb1         1.0     0.993524     0.999486     0.995514    Biso  1.000000 Pb
   I1          1.0     0.483104     0.991785     0.956164    Biso  1.000000 I
   Br1         1.0     0.938509     0.008379     0.494691    Biso  1.000000 Br
   Br2         1.0     0.959201     0.499867     0.039147    Biso  1.000000 Br
