
#======================================================================
# CRYSTAL DATA
#----------------------------------------------------------------------
data_VESTA_phase_1

_chemical_name_common                  'MAPbI3-cubic-CONTCAR_vicent           '
_cell_length_a                         6.318881
_cell_length_b                         5.899650
_cell_length_c                         5.987367
_cell_angle_alpha                      90.000000
_cell_angle_beta                       86.000000
_cell_angle_gamma                      90.000000
_cell_volume                           222.660432
_space_group_name_H-M_alt              'P 1'
_space_group_IT_number                 1

loop_
_space_group_symop_operation_xyz
   'x, y, z'

loop_
   _atom_site_label
   _atom_site_occupancy
   _atom_site_fract_x
   _atom_site_fract_y
   _atom_site_fract_z
   _atom_site_adp_type
   _atom_site_B_iso_or_equiv
   _atom_site_type_symbol
   C1          1.0     0.431521     0.489761     0.479246    Biso  1.000000 C
   N1          1.0     0.656011     0.489648     0.541509    Biso  1.000000 N
   H1          1.0     0.430371     0.489655     0.296437    Biso  1.000000 H
   H2          1.0     0.353516     0.642369     0.549071    Biso  1.000000 H
   H3          1.0     0.353321     0.337347     0.549261    Biso  1.000000 H
   H4          1.0     0.737950     0.632104     0.480542    Biso  1.000000 H
   H5          1.0     0.737805     0.347050     0.480659    Biso  1.000000 H
   H6          1.0     0.667821     0.489709     0.713427    Biso  1.000000 H
   Pb1         1.0     0.987295     0.989669     0.984287    Biso  1.000000 Pb
   I1          1.0     0.477770     0.989704     0.959324    Biso  1.000000 I
   Br1         1.0     0.948726     0.989653     0.476818    Biso  1.000000 Br
   Br2         1.0     0.943164     0.489673     0.007539    Biso  1.000000 Br
