
#======================================================================
# CRYSTAL DATA
#----------------------------------------------------------------------
data_VESTA_phase_1

_chemical_name_common                  'MAPbI3-cubic-CONTCAR_vicent           '
_cell_length_a                         6.318881
_cell_length_b                         5.899650
_cell_length_c                         5.987367
_cell_angle_alpha                      93.000000
_cell_angle_beta                       93.000000
_cell_angle_gamma                      93.000000
_cell_volume                           222.253071
_space_group_name_H-M_alt              'P 1'
_space_group_IT_number                 1

loop_
_space_group_symop_operation_xyz
   'x, y, z'

loop_
   _atom_site_label
   _atom_site_occupancy
   _atom_site_fract_x
   _atom_site_fract_y
   _atom_site_fract_z
   _atom_site_adp_type
   _atom_site_B_iso_or_equiv
   _atom_site_type_symbol
   C1          1.0     0.426878     0.485385     0.471878    Biso  1.000000 C
   N1          1.0     0.657714     0.487711     0.538331    Biso  1.000000 N
   H1          1.0     0.407189     0.481802     0.289066    Biso  1.000000 H
   H2          1.0     0.362995     0.639409     0.545623    Biso  1.000000 H
   H3          1.0     0.347308     0.334177     0.534967    Biso  1.000000 H
   H4          1.0     0.739342     0.630311     0.484156    Biso  1.000000 H
   H5          1.0     0.728372     0.345123     0.474260    Biso  1.000000 H
   H6          1.0     0.687094     0.489836     0.710768    Biso  1.000000 H
   Pb1         1.0     0.991493     0.994565     0.991661    Biso  1.000000 Pb
   I1          1.0     0.482069     0.990910     0.955471    Biso  1.000000 I
   Br1         1.0     0.940784     0.001919     0.490099    Biso  1.000000 Br
   Br2         1.0     0.954030     0.495193     0.031841    Biso  1.000000 Br
