
#======================================================================
# CRYSTAL DATA
#----------------------------------------------------------------------
data_VESTA_phase_1

_chemical_name_common                  'MAPbI3-cubic-CONTCAR_vicent           '
_cell_length_a                         6.118880
_cell_length_b                         5.899650
_cell_length_c                         5.987367
_cell_angle_alpha                      90.000000
_cell_angle_beta                       90.000000
_cell_angle_gamma                      90.000000
_cell_volume                           216.139445
_space_group_name_H-M_alt              'P 1'
_space_group_IT_number                 1

loop_
_space_group_symop_operation_xyz
   'x, y, z'

loop_
   _atom_site_label
   _atom_site_occupancy
   _atom_site_fract_x
   _atom_site_fract_y
   _atom_site_fract_z
   _atom_site_adp_type
   _atom_site_B_iso_or_equiv
   _atom_site_type_symbol
   C1          1.0     0.425605     0.489771     0.476844    Biso  1.000000 C
   N1          1.0     0.660893     0.489645     0.540296    Biso  1.000000 N
   H1          1.0     0.413534     0.489668     0.294480    Biso  1.000000 H
   H2          1.0     0.349059     0.642393     0.545806    Biso  1.000000 H
   H3          1.0     0.348852     0.337347     0.545991    Biso  1.000000 H
   H4          1.0     0.742067     0.632204     0.480967    Biso  1.000000 H
   H5          1.0     0.741909     0.346939     0.481079    Biso  1.000000 H
   H6          1.0     0.683612     0.489701     0.712153    Biso  1.000000 H
   Pb1         1.0     0.985495     0.989663     0.988730    Biso  1.000000 Pb
   I1          1.0     0.480238     0.989684     0.950289    Biso  1.000000 I
   Br1         1.0     0.944350     0.989658     0.482192    Biso  1.000000 Br
   Br2         1.0     0.949657     0.489668     0.019293    Biso  1.000000 Br
