
#======================================================================
# CRYSTAL DATA
#----------------------------------------------------------------------
data_VESTA_phase_1

_chemical_name_common                  'MAPbI3-cubic-CONTCAR_vicent           '
_cell_length_a                         6.318881
_cell_length_b                         5.899650
_cell_length_c                         5.987367
_cell_angle_alpha                      95.000000
_cell_angle_beta                       90.000000
_cell_angle_gamma                      90.000000
_cell_volume                           222.354787
_space_group_name_H-M_alt              'P 1'
_space_group_IT_number                 1

loop_
_space_group_symop_operation_xyz
   'x, y, z'

loop_
   _atom_site_label
   _atom_site_occupancy
   _atom_site_fract_x
   _atom_site_fract_y
   _atom_site_fract_z
   _atom_site_adp_type
   _atom_site_B_iso_or_equiv
   _atom_site_type_symbol
   C1          1.0     0.429312     0.488758     0.476916    Biso  1.000000 C
   N1          1.0     0.657507     0.490451     0.540105    Biso  1.000000 N
   H1          1.0     0.416733     0.480572     0.294168    Biso  1.000000 H
   H2          1.0     0.356556     0.645035     0.553531    Biso  1.000000 H
   H3          1.0     0.354378     0.339532     0.539892    Biso  1.000000 H
   H4          1.0     0.736567     0.629903     0.485418    Biso  1.000000 H
   H5          1.0     0.735016     0.344191     0.474739    Biso  1.000000 H
   H6          1.0     0.680099     0.497662     0.712335    Biso  1.000000 H
   Pb1         1.0     0.987510     0.989810     0.987507    Biso  1.000000 Pb
   I1          1.0     0.479266     0.991010     0.952441    Biso  1.000000 I
   Br1         1.0     0.943502     0.990567     0.482723    Biso  1.000000 Br
   Br2         1.0     0.948823     0.488849     0.018344    Biso  1.000000 Br
