
#======================================================================
# CRYSTAL DATA
#----------------------------------------------------------------------
data_VESTA_phase_1

_chemical_name_common                  'MAPbI3-cubic-CONTCAR_vicent           '
_cell_length_a                         6.318881
_cell_length_b                         5.899650
_cell_length_c                         5.987367
_cell_angle_alpha                      90.000000
_cell_angle_beta                       90.000000
_cell_angle_gamma                      84.000000
_cell_volume                           221.981410
_space_group_name_H-M_alt              'P 1'
_space_group_IT_number                 1

loop_
_space_group_symop_operation_xyz
   'x, y, z'

loop_
   _atom_site_label
   _atom_site_occupancy
   _atom_site_fract_x
   _atom_site_fract_y
   _atom_site_fract_z
   _atom_site_adp_type
   _atom_site_B_iso_or_equiv
   _atom_site_type_symbol
   C1          1.0     0.428981     0.495623     0.475299    Biso  1.000000 C
   N1          1.0     0.656900     0.493815     0.539967    Biso  1.000000 N
   H1          1.0     0.418039     0.491445     0.292925    Biso  1.000000 H
   H2          1.0     0.340761     0.650778     0.540871    Biso  1.000000 H
   H3          1.0     0.367712     0.344612     0.546916    Biso  1.000000 H
   H4          1.0     0.725692     0.631525     0.474501    Biso  1.000000 H
   H5          1.0     0.746177     0.345578     0.486661    Biso  1.000000 H
   H6          1.0     0.677787     0.501133     0.711926    Biso  1.000000 H
   Pb1         1.0     0.990312     0.981274     0.987822    Biso  1.000000 Pb
   I1          1.0     0.480696     0.993755     0.956234    Biso  1.000000 I
   Br1         1.0     0.946438     0.968346     0.483537    Biso  1.000000 Br
   Br2         1.0     0.945777     0.478456     0.021463    Biso  1.000000 Br
