
#======================================================================
# CRYSTAL DATA
#----------------------------------------------------------------------
data_VESTA_phase_1

_chemical_name_common                  'MAPbI3-cubic-CONTCAR_vicent           '
_cell_length_a                         6.318881
_cell_length_b                         5.899650
_cell_length_c                         5.987367
_cell_angle_alpha                      90.000000
_cell_angle_beta                       88.000000
_cell_angle_gamma                      90.000000
_cell_volume                           223.068176
_space_group_name_H-M_alt              'P 1'
_space_group_IT_number                 1

loop_
_space_group_symop_operation_xyz
   'x, y, z'

loop_
   _atom_site_label
   _atom_site_occupancy
   _atom_site_fract_x
   _atom_site_fract_y
   _atom_site_fract_z
   _atom_site_adp_type
   _atom_site_B_iso_or_equiv
   _atom_site_type_symbol
   C1          1.0     0.429930     0.489770     0.478865    Biso  1.000000 C
   N1          1.0     0.657069     0.489647     0.539224    Biso  1.000000 N
   H1          1.0     0.421682     0.489667     0.296790    Biso  1.000000 H
   H2          1.0     0.354441     0.642414     0.548511    Biso  1.000000 H
   H3          1.0     0.354239     0.337323     0.548701    Biso  1.000000 H
   H4          1.0     0.737167     0.632165     0.478592    Biso  1.000000 H
   H5          1.0     0.737015     0.346980     0.478709    Biso  1.000000 H
   H6          1.0     0.675509     0.489703     0.710704    Biso  1.000000 H
   Pb1         1.0     0.987193     0.989664     0.987564    Biso  1.000000 Pb
   I1          1.0     0.478741     0.989682     0.951678    Biso  1.000000 I
   Br1         1.0     0.943854     0.989658     0.481724    Biso  1.000000 Br
   Br2         1.0     0.948430     0.489668     0.017057    Biso  1.000000 Br
