
#======================================================================
# CRYSTAL DATA
#----------------------------------------------------------------------
data_VESTA_phase_1

_chemical_name_common                  'MAPbI3-cubic-CONTCAR_vicent           '
_cell_length_a                         6.318881
_cell_length_b                         5.899650
_cell_length_c                         5.987367
_cell_angle_alpha                      90.000000
_cell_angle_beta                       85.000000
_cell_angle_gamma                      90.000000
_cell_volume                           222.354787
_space_group_name_H-M_alt              'P 1'
_space_group_IT_number                 1

loop_
_space_group_symop_operation_xyz
   'x, y, z'

loop_
   _atom_site_label
   _atom_site_occupancy
   _atom_site_fract_x
   _atom_site_fract_y
   _atom_site_fract_z
   _atom_site_adp_type
   _atom_site_B_iso_or_equiv
   _atom_site_type_symbol
   C1          1.0     0.432085     0.489760     0.480002    Biso  1.000000 C
   N1          1.0     0.655572     0.489649     0.542298    Biso  1.000000 N
   H1          1.0     0.434036     0.489653     0.297206    Biso  1.000000 H
   H2          1.0     0.353020     0.642316     0.549715    Biso  1.000000 H
   H3          1.0     0.352823     0.337395     0.549906    Biso  1.000000 H
   H4          1.0     0.738525     0.632029     0.481364    Biso  1.000000 H
   H5          1.0     0.738379     0.347124     0.481484    Biso  1.000000 H
   H6          1.0     0.664505     0.489711     0.714375    Biso  1.000000 H
   Pb1         1.0     0.986996     0.989670     0.982842    Biso  1.000000 Pb
   I1          1.0     0.477228     0.989706     0.961292    Biso  1.000000 I
   Br1         1.0     0.950404     0.989653     0.474511    Biso  1.000000 Br
   Br2         1.0     0.941698     0.489674     0.003125    Biso  1.000000 Br
