
#======================================================================
# CRYSTAL DATA
#----------------------------------------------------------------------
data_VESTA_phase_1

_chemical_name_common                  'MAPbI3-cubic-CONTCAR_vicent           '
_cell_length_a                         6.318881
_cell_length_b                         5.899650
_cell_length_c                         5.987367
_cell_angle_alpha                      89.000000
_cell_angle_beta                       90.000000
_cell_angle_gamma                      90.000000
_cell_volume                           223.170151
_space_group_name_H-M_alt              'P 1'
_space_group_IT_number                 1

loop_
_space_group_symop_operation_xyz
   'x, y, z'

loop_
   _atom_site_label
   _atom_site_occupancy
   _atom_site_fract_x
   _atom_site_fract_y
   _atom_site_fract_z
   _atom_site_adp_type
   _atom_site_B_iso_or_equiv
   _atom_site_type_symbol
   C1          1.0     0.429311     0.489844     0.477262    Biso  1.000000 C
   N1          1.0     0.657590     0.489636     0.540149    Biso  1.000000 N
   H1          1.0     0.416593     0.491221     0.294980    Biso  1.000000 H
   H2          1.0     0.355683     0.641677     0.545568    Biso  1.000000 H
   H3          1.0     0.355368     0.336916     0.548200    Biso  1.000000 H
   H4          1.0     0.736121     0.632708     0.479049    Biso  1.000000 H
   H5          1.0     0.735766     0.347697     0.481501    Biso  1.000000 H
   H6          1.0     0.680411     0.488122     0.711936    Biso  1.000000 H
   Pb1         1.0     0.987054     0.989641     0.987726    Biso  1.000000 Pb
   I1          1.0     0.479063     0.989554     0.951131    Biso  1.000000 I
   Br1         1.0     0.943342     0.989556     0.482358    Biso  1.000000 Br
   Br2         1.0     0.948970     0.489769     0.018260    Biso  1.000000 Br
