
#======================================================================
# CRYSTAL DATA
#----------------------------------------------------------------------
data_VESTA_phase_1

_chemical_name_common                  'MAPbI3-cubic-CONTCAR_vicent           '
_cell_length_a                         6.318881
_cell_length_b                         5.899650
_cell_length_c                         5.987367
_cell_angle_alpha                      90.000000
_cell_angle_beta                       87.000000
_cell_angle_gamma                      90.000000
_cell_volume                           222.898252
_space_group_name_H-M_alt              'P 1'
_space_group_IT_number                 1

loop_
_space_group_symop_operation_xyz
   'x, y, z'

loop_
   _atom_site_label
   _atom_site_occupancy
   _atom_site_fract_x
   _atom_site_fract_y
   _atom_site_fract_z
   _atom_site_adp_type
   _atom_site_B_iso_or_equiv
   _atom_site_type_symbol
   C1          1.0     0.430506     0.489770     0.479415    Biso  1.000000 C
   N1          1.0     0.656603     0.489643     0.539083    Biso  1.000000 N
   H1          1.0     0.424639     0.489665     0.297206    Biso  1.000000 H
   H2          1.0     0.354024     0.642084     0.549651    Biso  1.000000 H
   H3          1.0     0.353822     0.337652     0.549842    Biso  1.000000 H
   H4          1.0     0.737507     0.631826     0.477758    Biso  1.000000 H
   H5          1.0     0.737355     0.347320     0.477876    Biso  1.000000 H
   H6          1.0     0.672693     0.489705     0.710497    Biso  1.000000 H
   Pb1         1.0     0.987288     0.989664     0.987364    Biso  1.000000 Pb
   I1          1.0     0.478446     0.989684     0.952336    Biso  1.000000 I
   Br1         1.0     0.944397     0.989658     0.481089    Biso  1.000000 Br
   Br2         1.0     0.947991     0.489668     0.016004    Biso  1.000000 Br
