
#======================================================================
# CRYSTAL DATA
#----------------------------------------------------------------------
data_VESTA_phase_1

_chemical_name_common                  'MAPbI3-cubic-CONTCAR_vicent           '
_cell_length_a                         6.318881
_cell_length_b                         5.899650
_cell_length_c                         5.987367
_cell_angle_alpha                      90.000000
_cell_angle_beta                       90.000000
_cell_angle_gamma                      85.000000
_cell_volume                           222.354787
_space_group_name_H-M_alt              'P 1'
_space_group_IT_number                 1

loop_
_space_group_symop_operation_xyz
   'x, y, z'

loop_
   _atom_site_label
   _atom_site_occupancy
   _atom_site_fract_x
   _atom_site_fract_y
   _atom_site_fract_z
   _atom_site_adp_type
   _atom_site_B_iso_or_equiv
   _atom_site_type_symbol
   C1          1.0     0.428911     0.494425     0.475731    Biso  1.000000 C
   N1          1.0     0.657145     0.492373     0.540148    Biso  1.000000 N
   H1          1.0     0.417578     0.491518     0.293265    Biso  1.000000 H
   H2          1.0     0.343342     0.649176     0.542464    Biso  1.000000 H
   H3          1.0     0.365378     0.343170     0.546830    Biso  1.000000 H
   H4          1.0     0.727567     0.631050     0.476214    Biso  1.000000 H
   H5          1.0     0.744066     0.345082     0.484634    Biso  1.000000 H
   H6          1.0     0.678409     0.497452     0.712134    Biso  1.000000 H
   Pb1         1.0     0.989719     0.984390     0.987575    Biso  1.000000 Pb
   I1          1.0     0.480063     0.992506     0.955426    Biso  1.000000 I
   Br1         1.0     0.946074     0.973584     0.483200    Biso  1.000000 Br
   Br2         1.0     0.947017     0.481615     0.020497    Biso  1.000000 Br
