
#======================================================================
# CRYSTAL DATA
#----------------------------------------------------------------------
data_VESTA_phase_1

_chemical_name_common                  'MAPbI3-cubic-CONTCAR_vicent           '
_cell_length_a                         6.318881
_cell_length_b                         6.199650
_cell_length_c                         5.987367
_cell_angle_alpha                      90.000000
_cell_angle_beta                       90.000000
_cell_angle_gamma                      90.000000
_cell_volume                           234.554171
_space_group_name_H-M_alt              'P 1'
_space_group_IT_number                 1

loop_
_space_group_symop_operation_xyz
   'x, y, z'

loop_
   _atom_site_label
   _atom_site_occupancy
   _atom_site_fract_x
   _atom_site_fract_y
   _atom_site_fract_z
   _atom_site_adp_type
   _atom_site_B_iso_or_equiv
   _atom_site_type_symbol
   C1          1.0     0.429721     0.489768     0.477380    Biso  1.000000 C
   N1          1.0     0.658359     0.489648     0.540432    Biso  1.000000 N
   H1          1.0     0.417081     0.489671     0.295040    Biso  1.000000 H
   H2          1.0     0.355771     0.634738     0.546779    Biso  1.000000 H
   H3          1.0     0.355574     0.344985     0.546961    Biso  1.000000 H
   H4          1.0     0.736364     0.624692     0.479540    Biso  1.000000 H
   H5          1.0     0.736212     0.354460     0.479653    Biso  1.000000 H
   H6          1.0     0.682229     0.489700     0.712290    Biso  1.000000 H
   Pb1         1.0     0.985473     0.989662     0.989359    Biso  1.000000 Pb
   I1          1.0     0.478294     0.989685     0.951298    Biso  1.000000 I
   Br1         1.0     0.941139     0.989660     0.482748    Biso  1.000000 Br
   Br2         1.0     0.949054     0.489672     0.016640    Biso  1.000000 Br
