
#======================================================================
# CRYSTAL DATA
#----------------------------------------------------------------------
data_VESTA_phase_1

_chemical_name_common                  'MAPbI3-cubic-CONTCAR_vicent           '
_cell_length_a                         6.318881
_cell_length_b                         5.899650
_cell_length_c                         5.987367
_cell_angle_alpha                      83.000000
_cell_angle_beta                       90.000000
_cell_angle_gamma                      90.000000
_cell_volume                           221.540416
_space_group_name_H-M_alt              'P 1'
_space_group_IT_number                 1

loop_
_space_group_symop_operation_xyz
   'x, y, z'

loop_
   _atom_site_label
   _atom_site_occupancy
   _atom_site_fract_x
   _atom_site_fract_y
   _atom_site_fract_z
   _atom_site_adp_type
   _atom_site_B_iso_or_equiv
   _atom_site_type_symbol
   C1          1.0     0.428700     0.492490     0.474655    Biso  1.000000 C
   N1          1.0     0.656564     0.489265     0.539435    Biso  1.000000 N
   H1          1.0     0.417333     0.504142     0.291427    Biso  1.000000 H
   H2          1.0     0.353400     0.640871     0.534793    Biso  1.000000 H
   H3          1.0     0.355937     0.334111     0.553261    Biso  1.000000 H
   H4          1.0     0.734662     0.638065     0.474750    Biso  1.000000 H
   H5          1.0     0.735299     0.352043     0.483911    Biso  1.000000 H
   H6          1.0     0.677911     0.476403     0.712383    Biso  1.000000 H
   Pb1         1.0     0.990577     0.989968     0.986866    Biso  1.000000 Pb
   I1          1.0     0.481615     0.981651     0.962469    Biso  1.000000 I
   Br1         1.0     0.945160     0.985083     0.484505    Biso  1.000000 Br
   Br2         1.0     0.948112     0.492247     0.019664    Biso  1.000000 Br
