
#======================================================================
# CRYSTAL DATA
#----------------------------------------------------------------------
data_VESTA_phase_1

_chemical_name_common                  'MAPbI3-cubic-CONTCAR_vicent           '
_cell_length_a                         6.318881
_cell_length_b                         5.899650
_cell_length_c                         5.987367
_cell_angle_alpha                      94.000000
_cell_angle_beta                       90.000000
_cell_angle_gamma                      90.000000
_cell_volume                           222.660432
_space_group_name_H-M_alt              'P 1'
_space_group_IT_number                 1

loop_
_space_group_symop_operation_xyz
   'x, y, z'

loop_
   _atom_site_label
   _atom_site_occupancy
   _atom_site_fract_x
   _atom_site_fract_y
   _atom_site_fract_z
   _atom_site_adp_type
   _atom_site_B_iso_or_equiv
   _atom_site_type_symbol
   C1          1.0     0.429307     0.488969     0.476997    Biso  1.000000 C
   N1          1.0     0.657509     0.490354     0.540070    Biso  1.000000 N
   H1          1.0     0.416733     0.482397     0.294384    Biso  1.000000 H
   H2          1.0     0.356318     0.644389     0.552082    Biso  1.000000 H
   H3          1.0     0.354615     0.339209     0.541249    Biso  1.000000 H
   H4          1.0     0.736407     0.630244     0.484416    Biso  1.000000 H
   H5          1.0     0.735254     0.344795     0.475885    Biso  1.000000 H
   H6          1.0     0.680131     0.496092     0.712231    Biso  1.000000 H
   Pb1         1.0     0.987461     0.989778     0.987559    Biso  1.000000 Pb
   I1          1.0     0.479226     0.990719     0.952208    Biso  1.000000 I
   Br1         1.0     0.943497     0.990373     0.482646    Biso  1.000000 Br
   Br2         1.0     0.948812     0.489022     0.018392    Biso  1.000000 Br
