
#======================================================================
# CRYSTAL DATA
#----------------------------------------------------------------------
data_VESTA_phase_1

_chemical_name_common                  'MAPbI3-cubic-CONTCAR_vicent           '
_cell_length_a                         6.318881
_cell_length_b                         5.499650
_cell_length_c                         5.987367
_cell_angle_alpha                      90.000000
_cell_angle_beta                       90.000000
_cell_angle_gamma                      90.000000
_cell_volume                           208.070760
_space_group_name_H-M_alt              'P 1'
_space_group_IT_number                 1

loop_
_space_group_symop_operation_xyz
   'x, y, z'

loop_
   _atom_site_label
   _atom_site_occupancy
   _atom_site_fract_x
   _atom_site_fract_y
   _atom_site_fract_z
   _atom_site_adp_type
   _atom_site_B_iso_or_equiv
   _atom_site_type_symbol
   C1          1.0     0.424755     0.489749     0.471208    Biso  1.000000 C
   N1          1.0     0.649397     0.489626     0.545220    Biso  1.000000 N
   H1          1.0     0.420810     0.489647     0.288431    Biso  1.000000 H
   H2          1.0     0.347664     0.653573     0.536030    Biso  1.000000 H
   H3          1.0     0.347477     0.326117     0.536190    Biso  1.000000 H
   H4          1.0     0.730450     0.642158     0.488048    Biso  1.000000 H
   H5          1.0     0.730318     0.336965     0.488127    Biso  1.000000 H
   H6          1.0     0.663769     0.489671     0.717871    Biso  1.000000 H
   Pb1         1.0     0.021707     0.989724     0.970244    Biso  1.000000 Pb
   I1          1.0     0.502287     0.989742     0.957654    Biso  1.000000 I
   Br1         1.0     0.966954     0.989651     0.475818    Biso  1.000000 Br
   Br2         1.0     0.919683     0.489717     0.043279    Biso  1.000000 Br
