
#======================================================================
# CRYSTAL DATA
#----------------------------------------------------------------------
data_VESTA_phase_1

_chemical_name_common                  'MAPbI3-cubic-CONTCAR_vicent           '
_cell_length_a                         6.318881
_cell_length_b                         5.899650
_cell_length_c                         5.987367
_cell_angle_alpha                      90.000000
_cell_angle_beta                       90.000000
_cell_angle_gamma                      94.000000
_cell_volume                           222.660432
_space_group_name_H-M_alt              'P 1'
_space_group_IT_number                 1

loop_
_space_group_symop_operation_xyz
   'x, y, z'

loop_
   _atom_site_label
   _atom_site_occupancy
   _atom_site_fract_x
   _atom_site_fract_y
   _atom_site_fract_z
   _atom_site_adp_type
   _atom_site_B_iso_or_equiv
   _atom_site_type_symbol
   C1          1.0     0.429228     0.486070     0.475846    Biso  1.000000 C
   N1          1.0     0.656955     0.487737     0.540020    Biso  1.000000 N
   H1          1.0     0.417587     0.487917     0.293583    Biso  1.000000 H
   H2          1.0     0.363908     0.637564     0.546442    Biso  1.000000 H
   H3          1.0     0.345524     0.332286     0.542872    Biso  1.000000 H
   H4          1.0     0.742344     0.633491     0.483553    Biso  1.000000 H
   H5          1.0     0.729071     0.348403     0.477453    Biso  1.000000 H
   H6          1.0     0.678697     0.483291     0.711680    Biso  1.000000 H
   Pb1         1.0     0.988936     0.992950     0.987619    Biso  1.000000 Pb
   I1          1.0     0.479803     0.987526     0.955588    Biso  1.000000 I
   Br1         1.0     0.945806     0.003024     0.483232    Biso  1.000000 Br
   Br2         1.0     0.947413     0.496082     0.020231    Biso  1.000000 Br
