
#======================================================================
# CRYSTAL DATA
#----------------------------------------------------------------------
data_VESTA_phase_1

_chemical_name_common                  'MAPbI3-cubic-CONTCAR_vicent           '
_cell_length_a                         6.318881
_cell_length_b                         5.899650
_cell_length_c                         5.987367
_cell_angle_alpha                      90.000000
_cell_angle_beta                       97.000000
_cell_angle_gamma                      90.000000
_cell_volume                           221.540416
_space_group_name_H-M_alt              'P 1'
_space_group_IT_number                 1

loop_
_space_group_symop_operation_xyz
   'x, y, z'

loop_
   _atom_site_label
   _atom_site_occupancy
   _atom_site_fract_x
   _atom_site_fract_y
   _atom_site_fract_z
   _atom_site_adp_type
   _atom_site_B_iso_or_equiv
   _atom_site_type_symbol
   C1          1.0     0.424687     0.489761     0.467754    Biso  1.000000 C
   N1          1.0     0.658986     0.489645     0.536975    Biso  1.000000 N
   H1          1.0     0.395169     0.489667     0.283833    Biso  1.000000 H
   H2          1.0     0.356788     0.642178     0.535792    Biso  1.000000 H
   H3          1.0     0.356626     0.337520     0.535952    Biso  1.000000 H
   H4          1.0     0.731670     0.632096     0.478495    Biso  1.000000 H
   H5          1.0     0.731544     0.347071     0.478576    Biso  1.000000 H
   H6          1.0     0.697823     0.489687     0.710782    Biso  1.000000 H
   Pb1         1.0     0.994767     0.989672     0.998256    Biso  1.000000 Pb
   I1          1.0     0.485336     0.989717     0.950022    Biso  1.000000 I
   Br1         1.0     0.935093     0.989649     0.497058    Biso  1.000000 Br
   Br2         1.0     0.956780     0.489677     0.044626    Biso  1.000000 Br
