
#======================================================================
# CRYSTAL DATA
#----------------------------------------------------------------------
data_VESTA_phase_1

_chemical_name_common                  'MAPbI3-cubic-CONTCAR_vicent           '
_cell_length_a                         6.318881
_cell_length_b                         5.899650
_cell_length_c                         6.387370
_cell_angle_alpha                      90.000000
_cell_angle_beta                       90.000000
_cell_angle_gamma                      90.000000
_cell_volume                           238.115947
_space_group_name_H-M_alt              'P 1'
_space_group_IT_number                 1

loop_
_space_group_symop_operation_xyz
   'x, y, z'

loop_
   _atom_site_label
   _atom_site_occupancy
   _atom_site_fract_x
   _atom_site_fract_y
   _atom_site_fract_z
   _atom_site_adp_type
   _atom_site_B_iso_or_equiv
   _atom_site_type_symbol
   C1          1.0     0.433654     0.489757     0.477972    Biso  1.000000 C
   N1          1.0     0.660739     0.489652     0.542460    Biso  1.000000 N
   H1          1.0     0.424302     0.489656     0.306876    Biso  1.000000 H
   H2          1.0     0.358132     0.642183     0.541336    Biso  1.000000 H
   H3          1.0     0.357956     0.337507     0.541492    Biso  1.000000 H
   H4          1.0     0.740693     0.632529     0.488528    Biso  1.000000 H
   H5          1.0     0.740574     0.346668     0.488598    Biso  1.000000 H
   H6          1.0     0.678407     0.489695     0.704195    Biso  1.000000 H
   Pb1         1.0     0.977786     0.989672     0.006409    Biso  1.000000 Pb
   I1          1.0     0.474593     0.989704     0.944250    Biso  1.000000 I
   Br1         1.0     0.943808     0.989644     0.466980    Biso  1.000000 Br
   Br2         1.0     0.934626     0.489673     0.009025    Biso  1.000000 Br
