
#======================================================================
# CRYSTAL DATA
#----------------------------------------------------------------------
data_VESTA_phase_1

_chemical_name_common                  'MAPbI3-cubic-CONTCAR_vicent           '
_cell_length_a                         6.318881
_cell_length_b                         5.899650
_cell_length_c                         5.987367
_cell_angle_alpha                      83.000000
_cell_angle_beta                       83.000000
_cell_angle_gamma                      83.000000
_cell_volume                           218.587824
_space_group_name_H-M_alt              'P 1'
_space_group_IT_number                 1

loop_
_space_group_symop_operation_xyz
   'x, y, z'

loop_
   _atom_site_label
   _atom_site_occupancy
   _atom_site_fract_x
   _atom_site_fract_y
   _atom_site_fract_z
   _atom_site_adp_type
   _atom_site_B_iso_or_equiv
   _atom_site_type_symbol
   C1          1.0     0.432321     0.497614     0.480420    Biso  1.000000 C
   N1          1.0     0.654646     0.491906     0.541917    Biso  1.000000 N
   H1          1.0     0.438801     0.505118     0.296215    Biso  1.000000 H
   H2          1.0     0.335690     0.650056     0.539417    Biso  1.000000 H
   H3          1.0     0.366040     0.341692     0.562466    Biso  1.000000 H
   H4          1.0     0.727427     0.636062     0.470296    Biso  1.000000 H
   H5          1.0     0.750859     0.347904     0.489826    Biso  1.000000 H
   H6          1.0     0.659410     0.486581     0.714816    Biso  1.000000 H
   Pb1         1.0     0.989310     0.987682     0.982776    Biso  1.000000 Pb
   I1          1.0     0.478209     0.985979     0.967038    Biso  1.000000 I
   Br1         1.0     0.948061     0.962472     0.473726    Biso  1.000000 Br
   Br2         1.0     0.944496     0.483274     0.999207    Biso  1.000000 Br
