
#======================================================================
# CRYSTAL DATA
#----------------------------------------------------------------------
data_VESTA_phase_1

_chemical_name_common                  'MAPbI3-cubic-CONTCAR_vicent           '
_cell_length_a                         6.318881
_cell_length_b                         5.899650
_cell_length_c                         5.987367
_cell_angle_alpha                      88.000000
_cell_angle_beta                       90.000000
_cell_angle_gamma                      90.000000
_cell_volume                           223.068176
_space_group_name_H-M_alt              'P 1'
_space_group_IT_number                 1

loop_
_space_group_symop_operation_xyz
   'x, y, z'

loop_
   _atom_site_label
   _atom_site_occupancy
   _atom_site_fract_x
   _atom_site_fract_y
   _atom_site_fract_z
   _atom_site_adp_type
   _atom_site_B_iso_or_equiv
   _atom_site_type_symbol
   C1          1.0     0.429308     0.489939     0.477255    Biso  1.000000 C
   N1          1.0     0.657593     0.489632     0.540163    Biso  1.000000 N
   H1          1.0     0.416579     0.492633     0.294943    Biso  1.000000 H
   H2          1.0     0.355777     0.641152     0.544467    Biso  1.000000 H
   H3          1.0     0.355269     0.336318     0.549356    Biso  1.000000 H
   H4          1.0     0.736244     0.633337     0.477938    Biso  1.000000 H
   H5          1.0     0.735649     0.348231     0.482550    Biso  1.000000 H
   H6          1.0     0.680416     0.486693     0.712001    Biso  1.000000 H
   Pb1         1.0     0.987067     0.989622     0.987711    Biso  1.000000 Pb
   I1          1.0     0.479064     0.989438     0.951130    Biso  1.000000 I
   Br1         1.0     0.943330     0.989479     0.482367    Biso  1.000000 Br
   Br2         1.0     0.948974     0.489865     0.018238    Biso  1.000000 Br
