
#======================================================================
# CRYSTAL DATA
#----------------------------------------------------------------------
data_VESTA_phase_1

_chemical_name_common                  'MAPbI3-cubic-CONTCAR_vicent           '
_cell_length_a                         6.318881
_cell_length_b                         5.899650
_cell_length_c                         6.187370
_cell_angle_alpha                      90.000000
_cell_angle_beta                       90.000000
_cell_angle_gamma                      90.000000
_cell_volume                           230.660100
_space_group_name_H-M_alt              'P 1'
_space_group_IT_number                 1

loop_
_space_group_symop_operation_xyz
   'x, y, z'

loop_
   _atom_site_label
   _atom_site_occupancy
   _atom_site_fract_x
   _atom_site_fract_y
   _atom_site_fract_z
   _atom_site_adp_type
   _atom_site_B_iso_or_equiv
   _atom_site_type_symbol
   C1          1.0     0.429812     0.489771     0.478053    Biso  1.000000 C
   N1          1.0     0.658011     0.489645     0.539679    Biso  1.000000 N
   H1          1.0     0.417600     0.489668     0.301556    Biso  1.000000 H
   H2          1.0     0.355417     0.642222     0.544925    Biso  1.000000 H
   H3          1.0     0.355220     0.337518     0.545104    Biso  1.000000 H
   H4          1.0     0.736392     0.632455     0.482180    Biso  1.000000 H
   H5          1.0     0.736244     0.346688     0.482288    Biso  1.000000 H
   H6          1.0     0.679489     0.489703     0.705931    Biso  1.000000 H
   Pb1         1.0     0.986379     0.989663     0.988539    Biso  1.000000 Pb
   I1          1.0     0.478929     0.989680     0.950598    Biso  1.000000 I
   Br1         1.0     0.943527     0.989659     0.481544    Biso  1.000000 Br
   Br2         1.0     0.948252     0.489668     0.017722    Biso  1.000000 Br
