
#======================================================================
# CRYSTAL DATA
#----------------------------------------------------------------------
data_VESTA_phase_1

_chemical_name_common                  'MAPbI3-cubic-CONTCAR_vicent           '
_cell_length_a                         6.318881
_cell_length_b                         5.899650
_cell_length_c                         5.987367
_cell_angle_alpha                      90.000000
_cell_angle_beta                       92.000000
_cell_angle_gamma                      90.000000
_cell_volume                           223.068176
_space_group_name_H-M_alt              'P 1'
_space_group_IT_number                 1

loop_
_space_group_symop_operation_xyz
   'x, y, z'

loop_
   _atom_site_label
   _atom_site_occupancy
   _atom_site_fract_x
   _atom_site_fract_y
   _atom_site_fract_z
   _atom_site_adp_type
   _atom_site_B_iso_or_equiv
   _atom_site_type_symbol
   C1          1.0     0.428599     0.489771     0.475452    Biso  1.000000 C
   N1          1.0     0.658081     0.489644     0.540998    Biso  1.000000 N
   H1          1.0     0.411457     0.489668     0.292786    Biso  1.000000 H
   H2          1.0     0.356655     0.641998     0.544952    Biso  1.000000 H
   H3          1.0     0.356463     0.337740     0.545133    Biso  1.000000 H
   H4          1.0     0.734919     0.631945     0.481796    Biso  1.000000 H
   H5          1.0     0.734773     0.347200     0.481905    Biso  1.000000 H
   H6          1.0     0.685187     0.489701     0.713374    Biso  1.000000 H
   Pb1         1.0     0.987279     0.989663     0.987820    Biso  1.000000 Pb
   I1          1.0     0.479322     0.989682     0.951070    Biso  1.000000 I
   Br1         1.0     0.942967     0.989659     0.483043    Biso  1.000000 Br
   Br2         1.0     0.949568     0.489668     0.019791    Biso  1.000000 Br
