
#======================================================================
# CRYSTAL DATA
#----------------------------------------------------------------------
data_VESTA_phase_1

_chemical_name_common                  'MAPbI3-cubic-CONTCAR_vicent           '
_cell_length_a                         6.018880
_cell_length_b                         5.899650
_cell_length_c                         5.987367
_cell_angle_alpha                      90.000000
_cell_angle_beta                       90.000000
_cell_angle_gamma                      90.000000
_cell_volume                           212.607112
_space_group_name_H-M_alt              'P 1'
_space_group_IT_number                 1

loop_
_space_group_symop_operation_xyz
   'x, y, z'

loop_
   _atom_site_label
   _atom_site_occupancy
   _atom_site_fract_x
   _atom_site_fract_y
   _atom_site_fract_z
   _atom_site_adp_type
   _atom_site_B_iso_or_equiv
   _atom_site_type_symbol
   C1          1.0     0.423589     0.489772     0.475885    Biso  1.000000 C
   N1          1.0     0.662345     0.489641     0.540904    Biso  1.000000 N
   H1          1.0     0.411023     0.489666     0.293526    Biso  1.000000 H
   H2          1.0     0.345206     0.641919     0.544564    Biso  1.000000 H
   H3          1.0     0.345002     0.337819     0.544746    Biso  1.000000 H
   H4          1.0     0.744853     0.632129     0.481248    Biso  1.000000 H
   H5          1.0     0.744699     0.347014     0.481357    Biso  1.000000 H
   H6          1.0     0.685727     0.489701     0.713024    Biso  1.000000 H
   Pb1         1.0     0.984351     0.989664     0.990905    Biso  1.000000 Pb
   I1          1.0     0.480329     0.989691     0.948192    Biso  1.000000 I
   Br1         1.0     0.946952     0.989655     0.482680    Biso  1.000000 Br
   Br2         1.0     0.951195     0.489669     0.021090    Biso  1.000000 Br
