
#======================================================================
# CRYSTAL DATA
#----------------------------------------------------------------------
data_VESTA_phase_1

_chemical_name_common                  'MAPbI3-cubic-CONTCAR_vicent           '
_cell_length_a                         6.318881
_cell_length_b                         5.899650
_cell_length_c                         5.987367
_cell_angle_alpha                      90.000000
_cell_angle_beta                       83.000000
_cell_angle_gamma                      90.000000
_cell_volume                           221.540416
_space_group_name_H-M_alt              'P 1'
_space_group_IT_number                 1

loop_
_space_group_symop_operation_xyz
   'x, y, z'

loop_
   _atom_site_label
   _atom_site_occupancy
   _atom_site_fract_x
   _atom_site_fract_y
   _atom_site_fract_z
   _atom_site_adp_type
   _atom_site_B_iso_or_equiv
   _atom_site_type_symbol
   C1          1.0     0.433129     0.489760     0.481889    Biso  1.000000 C
   N1          1.0     0.654677     0.489648     0.543144    Biso  1.000000 N
   H1          1.0     0.440120     0.489651     0.298318    Biso  1.000000 H
   H2          1.0     0.351989     0.642338     0.552216    Biso  1.000000 H
   H3          1.0     0.351785     0.337378     0.552414    Biso  1.000000 H
   H4          1.0     0.739392     0.632000     0.481519    Biso  1.000000 H
   H5          1.0     0.739242     0.347150     0.481646    Biso  1.000000 H
   H6          1.0     0.658651     0.489716     0.715539    Biso  1.000000 H
   Pb1         1.0     0.986368     0.989671     0.979848    Biso  1.000000 Pb
   I1          1.0     0.476303     0.989703     0.962877    Biso  1.000000 I
   Br1         1.0     0.952377     0.989653     0.471184    Biso  1.000000 Br
   Br2         1.0     0.941238     0.489674     0.997526    Biso  1.000000 Br
