
#======================================================================
# CRYSTAL DATA
#----------------------------------------------------------------------
data_VESTA_phase_1

_chemical_name_common                  'MAPbI3-cubic-CONTCAR_vicent           '
_cell_length_a                         6.318881
_cell_length_b                         5.899650
_cell_length_c                         5.987367
_cell_angle_alpha                      85.000000
_cell_angle_beta                       90.000000
_cell_angle_gamma                      90.000000
_cell_volume                           222.354787
_space_group_name_H-M_alt              'P 1'
_space_group_IT_number                 1

loop_
_space_group_symop_operation_xyz
   'x, y, z'

loop_
   _atom_site_label
   _atom_site_occupancy
   _atom_site_fract_x
   _atom_site_fract_y
   _atom_site_fract_z
   _atom_site_adp_type
   _atom_site_B_iso_or_equiv
   _atom_site_type_symbol
   C1          1.0     0.429312     0.490783     0.476917    Biso  1.000000 C
   N1          1.0     0.657508     0.488838     0.540110    Biso  1.000000 N
   H1          1.0     0.416728     0.498757     0.294177    Biso  1.000000 H
   H2          1.0     0.354574     0.640215     0.539701    Biso  1.000000 H
   H3          1.0     0.356361     0.334691     0.553706    Biso  1.000000 H
   H4          1.0     0.735164     0.634961     0.474635    Biso  1.000000 H
   H5          1.0     0.736419     0.349235     0.485537    Biso  1.000000 H
   H6          1.0     0.680105     0.481745     0.712334    Biso  1.000000 H
   Pb1         1.0     0.987509     0.989518     0.987506    Biso  1.000000 Pb
   I1          1.0     0.479265     0.988360     0.952429    Biso  1.000000 I
   Br1         1.0     0.943501     0.988750     0.482722    Biso  1.000000 Br
   Br2         1.0     0.948823     0.490487     0.018345    Biso  1.000000 Br
