
#======================================================================
# CRYSTAL DATA
#----------------------------------------------------------------------
data_VESTA_phase_1

_chemical_name_common                  'MAPbI3-cubic-CONTCAR_vicent           '
_cell_length_a                         6.518880
_cell_length_b                         5.899650
_cell_length_c                         5.987367
_cell_angle_alpha                      90.000000
_cell_angle_beta                       90.000000
_cell_angle_gamma                      90.000000
_cell_volume                           230.268796
_space_group_name_H-M_alt              'P 1'
_space_group_IT_number                 1

loop_
_space_group_symop_operation_xyz
   'x, y, z'

loop_
   _atom_site_label
   _atom_site_occupancy
   _atom_site_fract_x
   _atom_site_fract_y
   _atom_site_fract_z
   _atom_site_adp_type
   _atom_site_B_iso_or_equiv
   _atom_site_type_symbol
   C1          1.0     0.433406     0.489762     0.476304    Biso  1.000000 C
   N1          1.0     0.654766     0.489648     0.539833    Biso  1.000000 N
   H1          1.0     0.421279     0.489657     0.293942    Biso  1.000000 H
   H2          1.0     0.361784     0.642013     0.545773    Biso  1.000000 H
   H3          1.0     0.361612     0.337695     0.545954    Biso  1.000000 H
   H4          1.0     0.731034     0.631895     0.479992    Biso  1.000000 H
   H5          1.0     0.730901     0.347267     0.480097    Biso  1.000000 H
   H6          1.0     0.676118     0.489703     0.711596    Biso  1.000000 H
   Pb1         1.0     0.999513     0.989671     0.984920    Biso  1.000000 Pb
   I1          1.0     0.474493     0.989705     0.959580    Biso  1.000000 I
   Br1         1.0     0.937951     0.989649     0.483497    Biso  1.000000 Br
   Br2         1.0     0.942411     0.489676     0.016631    Biso  1.000000 Br
