
#======================================================================
# CRYSTAL DATA
#----------------------------------------------------------------------
data_VESTA_phase_1

_chemical_name_common                  'MAPbI3-cubic-CONTCAR_vicent           '
_cell_length_a                         6.318881
_cell_length_b                         5.899650
_cell_length_c                         5.987367
_cell_angle_alpha                      93.000000
_cell_angle_beta                       90.000000
_cell_angle_gamma                      90.000000
_cell_volume                           222.898252
_space_group_name_H-M_alt              'P 1'
_space_group_IT_number                 1

loop_
_space_group_symop_operation_xyz
   'x, y, z'

loop_
   _atom_site_label
   _atom_site_occupancy
   _atom_site_fract_x
   _atom_site_fract_y
   _atom_site_fract_z
   _atom_site_adp_type
   _atom_site_B_iso_or_equiv
   _atom_site_type_symbol
   C1          1.0     0.429386     0.489196     0.477099    Biso  1.000000 C
   N1          1.0     0.657496     0.490075     0.540101    Biso  1.000000 N
   H1          1.0     0.416693     0.484267     0.294607    Biso  1.000000 H
   H2          1.0     0.356069     0.643852     0.550747    Biso  1.000000 H
   H3          1.0     0.354866     0.338886     0.542680    Biso  1.000000 H
   H4          1.0     0.736297     0.630673     0.483438    Biso  1.000000 H
   H5          1.0     0.735441     0.345431     0.476977    Biso  1.000000 H
   H6          1.0     0.680204     0.494493     0.712097    Biso  1.000000 H
   Pb1         1.0     0.987366     0.989751     0.987607    Biso  1.000000 Pb
   I1          1.0     0.479155     0.990358     0.951838    Biso  1.000000 I
   Br1         1.0     0.943457     0.990142     0.482545    Biso  1.000000 Br
   Br2         1.0     0.948839     0.489217     0.018384    Biso  1.000000 Br
