
#======================================================================
# CRYSTAL DATA
#----------------------------------------------------------------------
data_VESTA_phase_1

_chemical_name_common                  'MAPbI3-cubic-CONTCAR_vicent           '
_cell_length_a                         6.318881
_cell_length_b                         5.899650
_cell_length_c                         5.987367
_cell_angle_alpha                      96.000000
_cell_angle_beta                       96.000000
_cell_angle_gamma                      96.000000
_cell_volume                           219.256149
_space_group_name_H-M_alt              'P 1'
_space_group_IT_number                 1

loop_
_space_group_symop_operation_xyz
   'x, y, z'

loop_
   _atom_site_label
   _atom_site_occupancy
   _atom_site_fract_x
   _atom_site_fract_y
   _atom_site_fract_z
   _atom_site_adp_type
   _atom_site_B_iso_or_equiv
   _atom_site_type_symbol
   C1          1.0     0.424314     0.480267     0.466569    Biso  1.000000 C
   N1          1.0     0.658435     0.484077     0.535132    Biso  1.000000 N
   H1          1.0     0.396859     0.473160     0.282383    Biso  1.000000 H
   H2          1.0     0.371558     0.637016     0.546632    Biso  1.000000 H
   H3          1.0     0.339687     0.328846     0.523245    Biso  1.000000 H
   H4          1.0     0.744560     0.627669     0.487139    Biso  1.000000 H
   H5          1.0     0.718221     0.339269     0.464343    Biso  1.000000 H
   H6          1.0     0.695590     0.488219     0.709105    Biso  1.000000 H
   Pb1         1.0     0.995794     0.006554     0.002087    Biso  1.000000 Pb
   I1          1.0     0.485497     0.992794     0.957841    Biso  1.000000 I
   Br1         1.0     0.935472     0.011535     0.500725    Biso  1.000000 Br
   Br2         1.0     0.959283     0.506935     0.042919    Biso  1.000000 Br
