
#======================================================================
# CRYSTAL DATA
#----------------------------------------------------------------------
data_VESTA_phase_1

_chemical_name_common                  'MAPbI3-cubic-CONTCAR_vicent           '
_cell_length_a                         6.318881
_cell_length_b                         5.899650
_cell_length_c                         5.987367
_cell_angle_alpha                      90.000000
_cell_angle_beta                       90.000000
_cell_angle_gamma                      87.000000
_cell_volume                           222.898252
_space_group_name_H-M_alt              'P 1'
_space_group_IT_number                 1

loop_
_space_group_symop_operation_xyz
   'x, y, z'

loop_
   _atom_site_label
   _atom_site_occupancy
   _atom_site_fract_x
   _atom_site_fract_y
   _atom_site_fract_z
   _atom_site_adp_type
   _atom_site_B_iso_or_equiv
   _atom_site_type_symbol
   C1          1.0     0.429197     0.492588     0.475624    Biso  1.000000 C
   N1          1.0     0.656899     0.491417     0.540003    Biso  1.000000 N
   H1          1.0     0.417683     0.491134     0.293347    Biso  1.000000 H
   H2          1.0     0.347838     0.646166     0.542753    Biso  1.000000 H
   H3          1.0     0.361623     0.341180     0.546125    Biso  1.000000 H
   H4          1.0     0.730861     0.631254     0.477827    Biso  1.000000 H
   H5          1.0     0.740527     0.346277     0.483189    Biso  1.000000 H
   H6          1.0     0.678641     0.494994     0.711772    Biso  1.000000 H
   Pb1         1.0     0.989248     0.986686     0.987576    Biso  1.000000 Pb
   I1          1.0     0.480010     0.991507     0.956272    Biso  1.000000 I
   Br1         1.0     0.945436     0.978778     0.483426    Biso  1.000000 Br
   Br2         1.0     0.947307     0.484359     0.020206    Biso  1.000000 Br
