
#======================================================================
# CRYSTAL DATA
#----------------------------------------------------------------------
data_VESTA_phase_1

_chemical_name_common                  'MAPbI3-cubic-CONTCAR_vicent           '
_cell_length_a                         5.918880
_cell_length_b                         5.899650
_cell_length_c                         5.987367
_cell_angle_alpha                      90.000000
_cell_angle_beta                       90.000000
_cell_angle_gamma                      90.000000
_cell_volume                           209.074778
_space_group_name_H-M_alt              'P 1'
_space_group_IT_number                 1

loop_
_space_group_symop_operation_xyz
   'x, y, z'

loop_
   _atom_site_label
   _atom_site_occupancy
   _atom_site_fract_x
   _atom_site_fract_y
   _atom_site_fract_z
   _atom_site_adp_type
   _atom_site_B_iso_or_equiv
   _atom_site_type_symbol
   C1          1.0     0.421372     0.489749     0.469124    Biso  1.000000 C
   N1          1.0     0.661281     0.489646     0.543206    Biso  1.000000 N
   H1          1.0     0.416253     0.489650     0.286602    Biso  1.000000 H
   H2          1.0     0.339354     0.642143     0.534915    Biso  1.000000 H
   H3          1.0     0.339174     0.337518     0.535077    Biso  1.000000 H
   H4          1.0     0.747626     0.632143     0.487568    Biso  1.000000 H
   H5          1.0     0.747492     0.347029     0.487660    Biso  1.000000 H
   H6          1.0     0.677672     0.489694     0.715840    Biso  1.000000 H
   Pb1         1.0     0.985099     0.989661     0.017414    Biso  1.000000 Pb
   I1          1.0     0.480949     0.989773     0.912485    Biso  1.000000 I
   Br1         1.0     0.958020     0.989659     0.499958    Biso  1.000000 Br
   Br2         1.0     0.950976     0.489675     0.028269    Biso  1.000000 Br
