
#======================================================================
# CRYSTAL DATA
#----------------------------------------------------------------------
data_VESTA_phase_1

_chemical_name_common                  'MAPbI3-cubic-CONTCAR_vicent           '
_cell_length_a                         6.318881
_cell_length_b                         5.899650
_cell_length_c                         5.987367
_cell_angle_alpha                      90.000000
_cell_angle_beta                       90.000000
_cell_angle_gamma                      88.000000
_cell_volume                           223.068176
_space_group_name_H-M_alt              'P 1'
_space_group_IT_number                 1

loop_
_space_group_symop_operation_xyz
   'x, y, z'

loop_
   _atom_site_label
   _atom_site_occupancy
   _atom_site_fract_x
   _atom_site_fract_y
   _atom_site_fract_z
   _atom_site_adp_type
   _atom_site_B_iso_or_equiv
   _atom_site_type_symbol
   C1          1.0     0.429306     0.491196     0.477099    Biso  1.000000 C
   N1          1.0     0.657523     0.489243     0.540126    Biso  1.000000 N
   H1          1.0     0.416671     0.490650     0.294875    Biso  1.000000 H
   H2          1.0     0.351478     0.644434     0.546042    Biso  1.000000 H
   H3          1.0     0.359316     0.339697     0.547167    Biso  1.000000 H
   H4          1.0     0.732484     0.630428     0.479468    Biso  1.000000 H
   H5          1.0     0.739321     0.345341     0.481097    Biso  1.000000 H
   H6          1.0     0.680211     0.489464     0.711906    Biso  1.000000 H
   Pb1         1.0     0.987456     0.989376     0.987646    Biso  1.000000 Pb
   I1          1.0     0.479070     0.989923     0.951727    Biso  1.000000 I
   Br1         1.0     0.943620     0.987753     0.482467    Biso  1.000000 Br
   Br2         1.0     0.948812     0.488836     0.018500    Biso  1.000000 Br
