
#======================================================================
# CRYSTAL DATA
#----------------------------------------------------------------------
data_VESTA_phase_1

_chemical_name_common                  'MAPbI3-cubic-CONTCAR_vicent           '
_cell_length_a                         6.318881
_cell_length_b                         5.899650
_cell_length_c                         5.987367
_cell_angle_alpha                      90.000000
_cell_angle_beta                       90.000000
_cell_angle_gamma                      83.000000
_cell_volume                           221.540416
_space_group_name_H-M_alt              'P 1'
_space_group_IT_number                 1

loop_
_space_group_symop_operation_xyz
   'x, y, z'

loop_
   _atom_site_label
   _atom_site_occupancy
   _atom_site_fract_x
   _atom_site_fract_y
   _atom_site_fract_z
   _atom_site_adp_type
   _atom_site_B_iso_or_equiv
   _atom_site_type_symbol
   C1          1.0     0.430016     0.496405     0.474230    Biso  1.000000 C
   N1          1.0     0.657358     0.495417     0.539928    Biso  1.000000 N
   H1          1.0     0.419798     0.489971     0.292070    Biso  1.000000 H
   H2          1.0     0.339325     0.652949     0.537349    Biso  1.000000 H
   H3          1.0     0.370208     0.346627     0.547472    Biso  1.000000 H
   H4          1.0     0.723992     0.632175     0.472043    Biso  1.000000 H
   H5          1.0     0.749115     0.345600     0.489058    Biso  1.000000 H
   H6          1.0     0.677257     0.504582     0.711819    Biso  1.000000 H
   Pb1         1.0     0.992050     0.972924     0.989299    Biso  1.000000 Pb
   I1          1.0     0.482053     0.995223     0.957324    Biso  1.000000 I
   Br1         1.0     0.941906     0.971928     0.484656    Biso  1.000000 Br
   Br2         1.0     0.942192     0.472541     0.022871    Biso  1.000000 Br
