
#======================================================================
# CRYSTAL DATA
#----------------------------------------------------------------------
data_VESTA_phase_1

_chemical_name_common                  'MAPbI3-cubic-CONTCAR_vicent           '
_cell_length_a                         6.318881
_cell_length_b                         5.899650
_cell_length_c                         5.987367
_cell_angle_alpha                      90.000000
_cell_angle_beta                       90.000000
_cell_angle_gamma                      92.000000
_cell_volume                           223.068176
_space_group_name_H-M_alt              'P 1'
_space_group_IT_number                 1

loop_
_space_group_symop_operation_xyz
   'x, y, z'

loop_
   _atom_site_label
   _atom_site_occupancy
   _atom_site_fract_x
   _atom_site_fract_y
   _atom_site_fract_z
   _atom_site_adp_type
   _atom_site_B_iso_or_equiv
   _atom_site_type_symbol
   C1          1.0     0.429308     0.488346     0.477099    Biso  1.000000 C
   N1          1.0     0.657520     0.490047     0.540125    Biso  1.000000 N
   H1          1.0     0.416668     0.488684     0.294876    Biso  1.000000 H
   H2          1.0     0.359519     0.640041     0.546983    Biso  1.000000 H
   H3          1.0     0.351293     0.335302     0.546228    Biso  1.000000 H
   H4          1.0     0.739461     0.633807     0.480984    Biso  1.000000 H
   H5          1.0     0.732330     0.348714     0.479580    Biso  1.000000 H
   H6          1.0     0.680213     0.489940     0.711905    Biso  1.000000 H
   Pb1         1.0     0.987456     0.989952     0.987646    Biso  1.000000 Pb
   I1          1.0     0.479070     0.989446     0.951727    Biso  1.000000 I
   Br1         1.0     0.943620     0.991562     0.482467    Biso  1.000000 Br
   Br2         1.0     0.948812     0.490501     0.018499    Biso  1.000000 Br
