
#======================================================================
# CRYSTAL DATA
#----------------------------------------------------------------------
data_VESTA_phase_1

_chemical_name_common                  'MAPbI3-cubic-CONTCAR_vicent           '
_cell_length_a                         6.318881
_cell_length_b                         5.899650
_cell_length_c                         5.987367
_cell_angle_alpha                      90.000000
_cell_angle_beta                       90.000000
_cell_angle_gamma                      89.000000
_cell_volume                           223.170151
_space_group_name_H-M_alt              'P 1'
_space_group_IT_number                 1

loop_
_space_group_symop_operation_xyz
   'x, y, z'

loop_
   _atom_site_label
   _atom_site_occupancy
   _atom_site_fract_x
   _atom_site_fract_y
   _atom_site_fract_z
   _atom_site_adp_type
   _atom_site_B_iso_or_equiv
   _atom_site_type_symbol
   C1          1.0     0.429335     0.490558     0.477270    Biso  1.000000 C
   N1          1.0     0.657560     0.489280     0.540185    Biso  1.000000 N
   H1          1.0     0.416567     0.489767     0.295020    Biso  1.000000 H
   H2          1.0     0.353793     0.643332     0.546855    Biso  1.000000 H
   H3          1.0     0.357215     0.338553     0.546911    Biso  1.000000 H
   H4          1.0     0.734355     0.631091     0.480233    Biso  1.000000 H
   H5          1.0     0.737586     0.346030     0.480302    Biso  1.000000 H
   H6          1.0     0.680424     0.489767     0.711914    Biso  1.000000 H
   Pb1         1.0     0.987053     0.989612     0.987734    Biso  1.000000 Pb
   I1          1.0     0.479052     0.989728     0.951091    Biso  1.000000 I
   Br1         1.0     0.943353     0.989163     0.482344    Biso  1.000000 Br
   Br2         1.0     0.948977     0.489460     0.018260    Biso  1.000000 Br
