
#======================================================================
# CRYSTAL DATA
#----------------------------------------------------------------------
data_VESTA_phase_1

_chemical_name_common                  'MAPbI3-cubic-CONTCAR_vicent           '
_cell_length_a                         6.318881
_cell_length_b                         5.899650
_cell_length_c                         5.987367
_cell_angle_alpha                      90.000000
_cell_angle_beta                       96.000000
_cell_angle_gamma                      90.000000
_cell_volume                           221.981410
_space_group_name_H-M_alt              'P 1'
_space_group_IT_number                 1

loop_
_space_group_symop_operation_xyz
   'x, y, z'

loop_
   _atom_site_label
   _atom_site_occupancy
   _atom_site_fract_x
   _atom_site_fract_y
   _atom_site_fract_z
   _atom_site_adp_type
   _atom_site_B_iso_or_equiv
   _atom_site_type_symbol
   C1          1.0     0.425100     0.489764     0.469555    Biso  1.000000 C
   N1          1.0     0.658783     0.489645     0.538159    Biso  1.000000 N
   H1          1.0     0.398163     0.489667     0.286131    Biso  1.000000 H
   H2          1.0     0.356231     0.641886     0.537724    Biso  1.000000 H
   H3          1.0     0.356063     0.337825     0.537891    Biso  1.000000 H
   H4          1.0     0.732818     0.631890     0.479490    Biso  1.000000 H
   H5          1.0     0.732687     0.347270     0.479578    Biso  1.000000 H
   H6          1.0     0.695002     0.489691     0.711648    Biso  1.000000 H
   Pb1         1.0     0.992262     0.989671     0.993425    Biso  1.000000 Pb
   I1          1.0     0.483444     0.989708     0.950996    Biso  1.000000 I
   Br1         1.0     0.937452     0.989649     0.493216    Biso  1.000000 Br
   Br2         1.0     0.957265     0.489674     0.040307    Biso  1.000000 Br
