
#======================================================================
# CRYSTAL DATA
#----------------------------------------------------------------------
data_VESTA_phase_1

_chemical_name_common                  'MAPbI3-cubic-CONTCAR_vicent           '
_cell_length_a                         6.418880
_cell_length_b                         5.999650
_cell_length_c                         6.087370
_cell_angle_alpha                      90.000000
_cell_angle_beta                       90.000000
_cell_angle_gamma                      90.000000
_cell_volume                           234.430906
_space_group_name_H-M_alt              'P 1'
_space_group_IT_number                 1

loop_
_space_group_symop_operation_xyz
   'x, y, z'

loop_
   _atom_site_label
   _atom_site_occupancy
   _atom_site_fract_x
   _atom_site_fract_y
   _atom_site_fract_z
   _atom_site_adp_type
   _atom_site_B_iso_or_equiv
   _atom_site_type_symbol
   C1          1.0     0.431663     0.489768     0.477973    Biso  1.000000 C
   N1          1.0     0.656603     0.489648     0.539916    Biso  1.000000 N
   H1          1.0     0.419104     0.489668     0.298592    Biso  1.000000 H
   H2          1.0     0.358793     0.639694     0.546147    Biso  1.000000 H
   H3          1.0     0.358598     0.340036     0.546330    Biso  1.000000 H
   H4          1.0     0.733292     0.629728     0.480635    Biso  1.000000 H
   H5          1.0     0.733144     0.349423     0.480746    Biso  1.000000 H
   H6          1.0     0.678385     0.489702     0.708925    Biso  1.000000 H
   Pb1         1.0     0.987102     0.989663     0.988563    Biso  1.000000 Pb
   I1          1.0     0.478096     0.989683     0.951468    Biso  1.000000 I
   Br1         1.0     0.942421     0.989659     0.482005    Biso  1.000000 Br
   Br2         1.0     0.948069     0.489670     0.016820    Biso  1.000000 Br
