
#======================================================================
# CRYSTAL DATA
#----------------------------------------------------------------------
data_VESTA_phase_1

_chemical_name_common                  'MAPbI3-cubic-CONTCAR_vicent           '
_cell_length_a                         6.318881
_cell_length_b                         5.899650
_cell_length_c                         5.987367
_cell_angle_alpha                      92.000000
_cell_angle_beta                       90.000000
_cell_angle_gamma                      90.000000
_cell_volume                           223.068176
_space_group_name_H-M_alt              'P 1'
_space_group_IT_number                 1

loop_
_space_group_symop_operation_xyz
   'x, y, z'

loop_
   _atom_site_label
   _atom_site_occupancy
   _atom_site_fract_x
   _atom_site_fract_y
   _atom_site_fract_z
   _atom_site_adp_type
   _atom_site_B_iso_or_equiv
   _atom_site_type_symbol
   C1          1.0     0.429309     0.489604     0.477255    Biso  1.000000 C
   N1          1.0     0.657592     0.489657     0.540162    Biso  1.000000 N
   H1          1.0     0.416579     0.486699     0.294938    Biso  1.000000 H
   H2          1.0     0.355467     0.643418     0.549175    Biso  1.000000 H
   H3          1.0     0.355580     0.338590     0.544654    Biso  1.000000 H
   H4          1.0     0.735798     0.630910     0.482436    Biso  1.000000 H
   H5          1.0     0.736094     0.345809     0.478047    Biso  1.000000 H
   H6          1.0     0.680415     0.492714     0.712003    Biso  1.000000 H
   Pb1         1.0     0.987068     0.989704     0.987711    Biso  1.000000 Pb
   I1          1.0     0.479064     0.989924     0.951133    Biso  1.000000 I
   Br1         1.0     0.943331     0.989839     0.482367    Biso  1.000000 Br
   Br2         1.0     0.948974     0.489470     0.018238    Biso  1.000000 Br
