
#======================================================================
# CRYSTAL DATA
#----------------------------------------------------------------------
data_VESTA_phase_1

_chemical_name_common                  'MAPbI3-cubic-CONTCAR_vicent           '
_cell_length_a                         6.318881
_cell_length_b                         5.599650
_cell_length_c                         5.987367
_cell_angle_alpha                      90.000000
_cell_angle_beta                       90.000000
_cell_angle_gamma                      90.000000
_cell_volume                           211.854102
_space_group_name_H-M_alt              'P 1'
_space_group_IT_number                 1

loop_
_space_group_symop_operation_xyz
   'x, y, z'

loop_
   _atom_site_label
   _atom_site_occupancy
   _atom_site_fract_x
   _atom_site_fract_y
   _atom_site_fract_z
   _atom_site_adp_type
   _atom_site_B_iso_or_equiv
   _atom_site_type_symbol
   C1          1.0     0.425160     0.489754     0.472247    Biso  1.000000 C
   N1          1.0     0.651569     0.489656     0.541920    Biso  1.000000 N
   H1          1.0     0.417255     0.489654     0.289853    Biso  1.000000 H
   H2          1.0     0.349391     0.650203     0.539216    Biso  1.000000 H
   H3          1.0     0.349235     0.329477     0.539380    Biso  1.000000 H
   H4          1.0     0.732257     0.639089     0.483757    Biso  1.000000 H
   H5          1.0     0.732136     0.340089     0.483867    Biso  1.000000 H
   H6          1.0     0.668350     0.489722     0.714348    Biso  1.000000 H
   Pb1         1.0     0.010560     0.989656     0.971879    Biso  1.000000 Pb
   I1          1.0     0.495865     0.989702     0.962491    Biso  1.000000 I
   Br1         1.0     0.965946     0.989667     0.477096    Biso  1.000000 Br
   Br2         1.0     0.927544     0.489670     0.042066    Biso  1.000000 Br
