
#======================================================================
# CRYSTAL DATA
#----------------------------------------------------------------------
data_VESTA_phase_1

_chemical_name_common                  'MAPbI3-cubic-CONTCAR_vicent           '
_cell_length_a                         6.318881
_cell_length_b                         5.899650
_cell_length_c                         5.987367
_cell_angle_alpha                      86.000000
_cell_angle_beta                       86.000000
_cell_angle_gamma                      86.000000
_cell_volume                           221.645310
_space_group_name_H-M_alt              'P 1'
_space_group_IT_number                 1

loop_
_space_group_symop_operation_xyz
   'x, y, z'

loop_
   _atom_site_label
   _atom_site_occupancy
   _atom_site_fract_x
   _atom_site_fract_y
   _atom_site_fract_z
   _atom_site_adp_type
   _atom_site_B_iso_or_equiv
   _atom_site_type_symbol
   C1          1.0     0.431296     0.494875     0.478645    Biso  1.000000 C
   N1          1.0     0.655625     0.491528     0.541486    Biso  1.000000 N
   H1          1.0     0.430208     0.498856     0.295794    Biso  1.000000 H
   H2          1.0     0.343769     0.646681     0.541593    Biso  1.000000 H
   H3          1.0     0.362081     0.340518     0.554898    Biso  1.000000 H
   H4          1.0     0.731240     0.634293     0.474678    Biso  1.000000 H
   H5          1.0     0.744360     0.348408     0.486722    Biso  1.000000 H
   H6          1.0     0.667675     0.488454     0.713509    Biso  1.000000 H
   Pb1         1.0     0.988126     0.987541     0.984727    Biso  1.000000 Pb
   I1          1.0     0.478140     0.987498     0.962208    Biso  1.000000 I
   Br1         1.0     0.948957     0.972473     0.477247    Biso  1.000000 Br
   Br2         1.0     0.943794     0.485215     0.006614    Biso  1.000000 Br
