
#======================================================================
# CRYSTAL DATA
#----------------------------------------------------------------------
data_VESTA_phase_1

_chemical_name_common                  'MAPbI3-cubic-CONTCAR_vicent           '
_cell_length_a                         6.318881
_cell_length_b                         5.899650
_cell_length_c                         5.987367
_cell_angle_alpha                      91.000000
_cell_angle_beta                       91.000000
_cell_angle_gamma                      91.000000
_cell_volume                           223.100958
_space_group_name_H-M_alt              'P 1'
_space_group_IT_number                 1

loop_
_space_group_symop_operation_xyz
   'x, y, z'

loop_
   _atom_site_label
   _atom_site_occupancy
   _atom_site_fract_x
   _atom_site_fract_y
   _atom_site_fract_z
   _atom_site_adp_type
   _atom_site_B_iso_or_equiv
   _atom_site_type_symbol
   C1          1.0     0.428966     0.488753     0.476339    Biso  1.000000 C
   N1          1.0     0.657814     0.490133     0.540554    Biso  1.000000 N
   H1          1.0     0.414043     0.487653     0.293844    Biso  1.000000 H
   H2          1.0     0.358297     0.641506     0.547215    Biso  1.000000 H
   H3          1.0     0.353761     0.336947     0.544589    Biso  1.000000 H
   H4          1.0     0.737384     0.632502     0.482365    Biso  1.000000 H
   H5          1.0     0.733365     0.347564     0.479787    Biso  1.000000 H
   H6          1.0     0.682773     0.491408     0.712659    Biso  1.000000 H
   Pb1         1.0     0.987251     0.989799     0.987761    Biso  1.000000 Pb
   I1          1.0     0.479198     0.989776     0.951229    Biso  1.000000 I
   Br1         1.0     0.943189     0.990455     0.482738    Biso  1.000000 Br
   Br2         1.0     0.949229     0.489846     0.019040    Biso  1.000000 Br
