
#======================================================================
# CRYSTAL DATA
#----------------------------------------------------------------------
data_VESTA_phase_1

_chemical_name_common                  'MAPbI3-cubic-CONTCAR_vicent           '
_cell_length_a                         6.318881
_cell_length_b                         5.899650
_cell_length_c                         5.987367
_cell_angle_alpha                      90.000000
_cell_angle_beta                       90.000000
_cell_angle_gamma                      95.000000
_cell_volume                           222.354787
_space_group_name_H-M_alt              'P 1'
_space_group_IT_number                 1

loop_
_space_group_symop_operation_xyz
   'x, y, z'

loop_
   _atom_site_label
   _atom_site_occupancy
   _atom_site_fract_x
   _atom_site_fract_y
   _atom_site_fract_z
   _atom_site_adp_type
   _atom_site_B_iso_or_equiv
   _atom_site_type_symbol
   C1          1.0     0.428922     0.485111     0.475739    Biso  1.000000 C
   N1          1.0     0.657146     0.486940     0.540149    Biso  1.000000 N
   H1          1.0     0.417569     0.487809     0.293262    Biso  1.000000 H
   H2          1.0     0.365572     0.636559     0.546653    Biso  1.000000 H
   H3          1.0     0.343192     0.330533     0.542673    Biso  1.000000 H
   H4          1.0     0.744192     0.634104     0.484502    Biso  1.000000 H
   H5          1.0     0.727417     0.348111     0.476332    Biso  1.000000 H
   H6          1.0     0.678415     0.481991     0.712141    Biso  1.000000 H
   Pb1         1.0     0.989702     0.994910     0.987577    Biso  1.000000 Pb
   I1          1.0     0.480056     0.986919     0.955413    Biso  1.000000 I
   Br1         1.0     0.946058     0.005650     0.483197    Biso  1.000000 Br
   Br2         1.0     0.947029     0.497702     0.020481    Biso  1.000000 Br
