
#======================================================================
# CRYSTAL DATA
#----------------------------------------------------------------------
data_VESTA_phase_1

_chemical_name_common                  'MAPbI3-cubic-CONTCAR_vicent           '
_cell_length_a                         6.218880
_cell_length_b                         5.899650
_cell_length_c                         5.987367
_cell_angle_alpha                      90.000000
_cell_angle_beta                       90.000000
_cell_angle_gamma                      90.000000
_cell_volume                           219.671795
_space_group_name_H-M_alt              'P 1'
_space_group_IT_number                 1

loop_
_space_group_symop_operation_xyz
   'x, y, z'

loop_
   _atom_site_label
   _atom_site_occupancy
   _atom_site_fract_x
   _atom_site_fract_y
   _atom_site_fract_z
   _atom_site_adp_type
   _atom_site_B_iso_or_equiv
   _atom_site_type_symbol
   C1          1.0     0.427523     0.489770     0.476992    Biso  1.000000 C
   N1          1.0     0.659175     0.489645     0.540212    Biso  1.000000 N
   H1          1.0     0.415143     0.489668     0.294720    Biso  1.000000 H
   H2          1.0     0.352412     0.642244     0.546194    Biso  1.000000 H
   H3          1.0     0.352211     0.337494     0.546378    Biso  1.000000 H
   H4          1.0     0.738934     0.632079     0.480609    Biso  1.000000 H
   H5          1.0     0.738781     0.347065     0.480721    Biso  1.000000 H
   H6          1.0     0.681909     0.489702     0.711988    Biso  1.000000 H
   Pb1         1.0     0.986356     0.989663     0.988134    Biso  1.000000 Pb
   I1          1.0     0.479678     0.989684     0.950998    Biso  1.000000 I
   Br1         1.0     0.943909     0.989658     0.482328    Biso  1.000000 Br
   Br2         1.0     0.949240     0.489668     0.018846    Biso  1.000000 Br
