
#======================================================================
# CRYSTAL DATA
#----------------------------------------------------------------------
data_VESTA_phase_1

_chemical_name_common                  'MAPbI3-cubic-CONTCAR_vicent           '
_cell_length_a                         6.318881
_cell_length_b                         5.899650
_cell_length_c                         6.287370
_cell_angle_alpha                      90.000000
_cell_angle_beta                       90.000000
_cell_angle_gamma                      90.000000
_cell_volume                           234.388033
_space_group_name_H-M_alt              'P 1'
_space_group_IT_number                 1

loop_
_space_group_symop_operation_xyz
   'x, y, z'

loop_
   _atom_site_label
   _atom_site_occupancy
   _atom_site_fract_x
   _atom_site_fract_y
   _atom_site_fract_z
   _atom_site_adp_type
   _atom_site_B_iso_or_equiv
   _atom_site_type_symbol
   C1          1.0     0.432369     0.489757     0.477476    Biso  1.000000 C
   N1          1.0     0.659924     0.489653     0.542000    Biso  1.000000 N
   H1          1.0     0.422206     0.489655     0.303623    Biso  1.000000 H
   H2          1.0     0.357180     0.642327     0.542063    Biso  1.000000 H
   H3          1.0     0.357001     0.337368     0.542221    Biso  1.000000 H
   H4          1.0     0.739691     0.632463     0.486626    Biso  1.000000 H
   H5          1.0     0.739566     0.346722     0.486703    Biso  1.000000 H
   H6          1.0     0.678483     0.489698     0.706201    Biso  1.000000 H
   Pb1         1.0     0.980781     0.989674     0.999700    Biso  1.000000 Pb
   I1          1.0     0.475975     0.989706     0.947954    Biso  1.000000 I
   Br1         1.0     0.945278     0.989643     0.471852    Biso  1.000000 Br
   Br2         1.0     0.936817     0.489674     0.011701    Biso  1.000000 Br
