
#======================================================================
# CRYSTAL DATA
#----------------------------------------------------------------------
data_VESTA_phase_1

_chemical_name_common                  'MAPbI3-cubic-CONTCAR_vicent           '
_cell_length_a                         6.318881
_cell_length_b                         5.899650
_cell_length_c                         5.987367
_cell_angle_alpha                      87.000000
_cell_angle_beta                       87.000000
_cell_angle_gamma                      87.000000
_cell_volume                           222.317329
_space_group_name_H-M_alt              'P 1'
_space_group_IT_number                 1

loop_
_space_group_symop_operation_xyz
   'x, y, z'

loop_
   _atom_site_label
   _atom_site_occupancy
   _atom_site_fract_x
   _atom_site_fract_y
   _atom_site_fract_z
   _atom_site_adp_type
   _atom_site_B_iso_or_equiv
   _atom_site_type_symbol
   C1          1.0     0.430783     0.493625     0.478084    Biso  1.000000 C
   N1          1.0     0.656172     0.490959     0.541072    Biso  1.000000 N
   H1          1.0     0.427071     0.496641     0.295384    Biso  1.000000 H
   H2          1.0     0.346659     0.645409     0.542496    Biso  1.000000 H
   H3          1.0     0.360478     0.339836     0.552586    Biso  1.000000 H
   H4          1.0     0.732411     0.633560     0.475920    Biso  1.000000 H
   H5          1.0     0.742225     0.348201     0.485205    Biso  1.000000 H
   H6          1.0     0.670590     0.488540     0.713100    Biso  1.000000 H
   Pb1         1.0     0.988127     0.987764     0.985321    Biso  1.000000 Pb
   I1          1.0     0.478454     0.988215     0.960093    Biso  1.000000 I
   Br1         1.0     0.947900     0.977307     0.478777    Biso  1.000000 Br
   Br2         1.0     0.944400     0.486284     0.010082    Biso  1.000000 Br
