
#======================================================================
# CRYSTAL DATA
#----------------------------------------------------------------------
data_VESTA_phase_1

_chemical_name_common                  'MAPbI3-cubic-CONTCAR_vicent           '
_cell_length_a                         6.318881
_cell_length_b                         5.899650
_cell_length_c                         5.987367
_cell_angle_alpha                      96.000000
_cell_angle_beta                       90.000000
_cell_angle_gamma                      90.000000
_cell_volume                           221.981410
_space_group_name_H-M_alt              'P 1'
_space_group_IT_number                 1

loop_
_space_group_symop_operation_xyz
   'x, y, z'

loop_
   _atom_site_label
   _atom_site_occupancy
   _atom_site_fract_x
   _atom_site_fract_y
   _atom_site_fract_z
   _atom_site_adp_type
   _atom_site_B_iso_or_equiv
   _atom_site_type_symbol
   C1          1.0     0.428926     0.487389     0.474806    Biso  1.000000 C
   N1          1.0     0.656587     0.489908     0.539503    Biso  1.000000 N
   H1          1.0     0.417508     0.477163     0.291750    Biso  1.000000 H
   H2          1.0     0.355929     0.644907     0.551616    Biso  1.000000 H
   H3          1.0     0.353476     0.338810     0.536313    Biso  1.000000 H
   H4          1.0     0.735577     0.627609     0.483408    Biso  1.000000 H
   H5          1.0     0.734854     0.342059     0.475941    Biso  1.000000 H
   H6          1.0     0.678120     0.501317     0.712141    Biso  1.000000 H
   Pb1         1.0     0.990010     0.989432     0.987108    Biso  1.000000 Pb
   I1          1.0     0.481284     0.996674     0.961420    Biso  1.000000 I
   Br1         1.0     0.945087     0.993599     0.484335    Biso  1.000000 Br
   Br2         1.0     0.947914     0.487474     0.019779    Biso  1.000000 Br
